<?xml version="1.0" encoding="UTF-8"?>

<!-- generated on 2026-06-04T16:52:24.526555+00:00 by Eclipse SUMO netedit 1.27.0
-->

<routes xmlns:xsi="http://www.w3.org/2001/XMLSchema-instance" xsi:noNamespaceSchemaLocation="http://sumo.dlr.de/xsd/routes_file.xsd">
    <!-- Vehicles, persons and containers (sorted by depart) -->
    <flow id="f_0" begin="0.00" end="3600.00" perHour="1800.00" from="-E43" to="E44" via="-E44 E40 -E40 E43 E45 -E45 E42 -E42 E41 -E41 E46 -E46"/>
    <flow id="f_1" begin="0.00" end="3600.00" perHour="1800.00" from="-E43" to="E43"/>
    <flow id="f_2" type="DEFAULT_PEDTYPE" begin="0.00" end="3600.00" perHour="1800.00" from="E43" to="E45" via="-E45 E42 E40 -E40 E44 E46 -E41 E41 -E46 -E44 -E43"/>
    <flow id="f_3" type="DEFAULT_PEDTYPE" begin="0.00" end="3600.00" perHour="1800.00" from="E43" to="-E40" via="E44 E46 -E41 E42 -E45 E40"/>
</routes>
