<?xml version="1.0" encoding="UTF-8"?>

<!-- generated on 2026-06-04T16:50:11.000052+00:00 by Eclipse SUMO netedit 1.27.0
<neteditConfiguration xmlns:xsi="http://www.w3.org/2001/XMLSchema-instance" xsi:noNamespaceSchemaLocation="http://sumo.dlr.de/xsd/neteditConfiguration.xsd">

    <input>
        <sumocfg-file value="H:\My Drive\Team Project\test.sumocfg"/>
        <route-files value="H:\My Drive\Team Project\route.rou.xml"/>
        <sumo-net-file value="H:\My Drive\Team Project\route.net.xml"/>
    </input>

    <output>
        <output-file value="H:\My Drive\Team Project\route.net.xml"/>
    </output>

    <processing>
        <geometry.min-radius.fix.railways value="false"/>
        <geometry.avoid-overlap value="false"/>
        <geometry.max-grade.fix value="false"/>
        <offset.disable-normalization value="true"/>
    </processing>

    <junctions>
        <no-internal-links value="false"/>
        <no-turnarounds value="true"/>
    </junctions>

</neteditConfiguration>
-->

<net version="1.20" junctionCornerDetail="5" limitTurnSpeed="5.50" avoidOverlap="0" xmlns:xsi="http://www.w3.org/2001/XMLSchema-instance" xsi:noNamespaceSchemaLocation="http://sumo.dlr.de/xsd/net_file.xsd">

    <location netOffset="0.00,0.00" convBoundary="-100.00,-100.00,100.00,0.00" origBoundary="-10000000000.00,-10000000000.00,10000000000.00,10000000000.00" projParameter="!"/>

    <edge id=":J44_0" function="internal">
        <lane id=":J44_0_0" index="0" disallow="pedestrian tram rail_urban rail rail_electric rail_fast ship container cable_car subway aircraft drone" speed="9.32" length="19.63" shape="-104.80,-92.80 -103.85,-96.65 -101.00,-99.40 -96.25,-101.05 -89.60,-101.60"/>
    </edge>
    <edge id=":J44_1" function="internal">
        <lane id=":J44_1_0" index="0" disallow="pedestrian tram rail_urban rail rail_electric rail_fast ship container cable_car subway aircraft drone" speed="6.51" length="9.03" shape="-89.60,-98.40 -92.05,-98.05 -93.80,-97.00 -94.85,-95.25 -95.20,-92.80"/>
        <lane id=":J44_1_1" index="1" disallow="pedestrian tram rail_urban rail rail_electric rail_fast ship container cable_car subway aircraft drone" speed="7.33" length="11.73" shape="-89.60,-98.40 -93.45,-98.05 -96.20,-97.00 -97.85,-95.25 -98.40,-92.80"/>
    </edge>
    <edge id=":J44_w0" function="walkingarea">
        <lane id=":J44_w0_0" index="0" allow="pedestrian" speed="2.78" length="21.14" width="2.00" shape="-89.60,-103.20 -89.60,-105.20 -95.34,-104.86 -100.04,-103.82 -103.70,-102.10 -106.31,-99.69 -107.88,-96.59 -108.40,-92.80 -106.40,-92.80 -105.93,-95.98 -104.53,-98.58 -102.20,-100.60 -98.93,-102.04 -94.73,-102.91"/>
    </edge>
    <edge id=":J44_w1" function="walkingarea">
        <lane id=":J44_w1_0" index="0" allow="pedestrian" speed="2.78" length="4.24" width="2.00" shape="-93.60,-92.80 -91.60,-92.80 -89.60,-94.80 -89.60,-96.80 -90.82,-96.69 -91.82,-96.36 -92.60,-95.80 -93.16,-95.02 -93.49,-94.02"/>
    </edge>
    <edge id=":J46_0" function="internal">
        <lane id=":J46_0_0" index="0" disallow="pedestrian tram rail_urban rail rail_electric rail_fast ship container cable_car subway aircraft drone" speed="13.89" length="14.40" shape="7.20,11.20 -7.20,11.20"/>
        <lane id=":J46_0_1" index="1" disallow="pedestrian tram rail_urban rail rail_electric rail_fast ship container cable_car subway aircraft drone" speed="13.89" length="14.40" shape="7.20,8.00 -7.20,8.00"/>
        <lane id=":J46_0_2" index="2" disallow="pedestrian tram rail_urban rail rail_electric rail_fast ship container cable_car subway aircraft drone" speed="13.89" length="14.40" shape="7.20,4.80 -7.20,4.80"/>
        <lane id=":J46_0_3" index="3" disallow="pedestrian tram rail_urban rail rail_electric rail_fast ship container cable_car subway aircraft drone" speed="13.89" length="14.40" shape="7.20,1.60 -7.20,1.60"/>
    </edge>
    <edge id=":J46_4" function="internal">
        <lane id=":J46_4_0" index="0" disallow="pedestrian tram rail_urban rail rail_electric rail_fast ship container cable_car subway aircraft drone" speed="9.94" length="2.58" shape="7.20,1.60 4.73,0.86"/>
    </edge>
    <edge id=":J46_14" function="internal">
        <lane id=":J46_14_0" index="0" disallow="pedestrian tram rail_urban rail rail_electric rail_fast ship container cable_car subway aircraft drone" speed="9.94" length="19.90" shape="4.73,0.86 3.35,0.45 0.60,-3.00 -1.05,-8.75 -1.60,-16.80"/>
    </edge>
    <edge id=":J46_5" function="internal">
        <lane id=":J46_5_0" index="0" disallow="pedestrian tram rail_urban rail rail_electric rail_fast ship container cable_car subway aircraft drone" speed="6.51" length="4.75" shape="1.60,-16.80 1.95,-14.35 3.00,-12.60 3.20,-12.48"/>
        <lane id=":J46_5_1" index="1" disallow="pedestrian tram rail_urban rail rail_electric rail_fast ship container cable_car subway aircraft drone" speed="7.33" length="7.08" shape="1.60,-16.80 1.95,-12.95 3.00,-10.20 3.20,-10.01"/>
    </edge>
    <edge id=":J46_7" function="internal">
        <lane id=":J46_7_0" index="0" disallow="pedestrian tram rail_urban rail rail_electric rail_fast ship container cable_car subway aircraft drone" speed="10.54" length="21.04" shape="1.60,-16.80 1.05,-7.35 -0.60,-0.60 -3.20,3.23"/>
        <lane id=":J46_7_1" index="1" disallow="pedestrian tram rail_urban rail rail_electric rail_fast ship container cable_car subway aircraft drone" speed="9.94" length="18.22" shape="1.60,-16.80 1.05,-8.75 -0.60,-3.00 -3.20,0.26"/>
    </edge>
    <edge id=":J46_15" function="internal">
        <lane id=":J46_15_0" index="0" disallow="pedestrian tram rail_urban rail rail_electric rail_fast ship container cable_car subway aircraft drone" speed="6.51" length="4.28" shape="3.20,-12.48 4.75,-11.55 7.20,-11.20"/>
        <lane id=":J46_15_1" index="0" disallow="pedestrian tram rail_urban rail rail_electric rail_fast ship container cable_car subway aircraft drone" speed="7.33" length="4.64" shape="3.20,-10.01 4.75,-8.55 7.20,-8.00"/>
    </edge>
    <edge id=":J46_16" function="internal">
        <lane id=":J46_16_0" index="0" disallow="pedestrian tram rail_urban rail rail_electric rail_fast ship container cable_car subway aircraft drone" speed="10.54" length="4.35" shape="-3.20,3.23 -3.35,3.45 -7.20,4.80"/>
        <lane id=":J46_16_1" index="0" disallow="pedestrian tram rail_urban rail rail_electric rail_fast ship container cable_car subway aircraft drone" speed="9.94" length="4.26" shape="-3.20,0.26 -3.35,0.45 -7.20,1.60"/>
    </edge>
    <edge id=":J46_9" function="internal">
        <lane id=":J46_9_0" index="0" disallow="pedestrian tram rail_urban rail rail_electric rail_fast ship container cable_car subway aircraft drone" speed="6.51" length="4.75" shape="-7.20,-11.20 -4.75,-11.55 -3.00,-12.60 -2.88,-12.80"/>
    </edge>
    <edge id=":J46_10" function="internal">
        <lane id=":J46_10_0" index="0" disallow="pedestrian tram rail_urban rail rail_electric rail_fast ship container cable_car subway aircraft drone" speed="13.89" length="14.40" shape="-7.20,-11.20 7.20,-11.20"/>
        <lane id=":J46_10_1" index="1" disallow="pedestrian tram rail_urban rail rail_electric rail_fast ship container cable_car subway aircraft drone" speed="13.89" length="14.40" shape="-7.20,-8.00 7.20,-8.00"/>
        <lane id=":J46_10_2" index="2" disallow="pedestrian tram rail_urban rail rail_electric rail_fast ship container cable_car subway aircraft drone" speed="13.89" length="14.40" shape="-7.20,-4.80 7.20,-4.80"/>
        <lane id=":J46_10_3" index="3" disallow="pedestrian tram rail_urban rail rail_electric rail_fast ship container cable_car subway aircraft drone" speed="13.89" length="14.40" shape="-7.20,-1.60 7.20,-1.60"/>
    </edge>
    <edge id=":J46_17" function="internal">
        <lane id=":J46_17_0" index="0" disallow="pedestrian tram rail_urban rail rail_electric rail_fast ship container cable_car subway aircraft drone" speed="6.51" length="4.28" shape="-2.88,-12.80 -1.95,-14.35 -1.60,-16.80"/>
    </edge>
    <edge id=":J46_c0" function="crossing" crossingEdges="E44 -E44">
        <lane id=":J46_c0_0" index="0" allow="pedestrian" speed="2.78" length="25.60" width="4.00" shape="5.20,-12.80 5.20,12.80" outlineShape="7.20,-12.90 7.20,12.90 3.20,12.80 3.20,-16.80 3.31,-15.58 3.64,-14.58 4.20,-13.80 4.98,-13.24 5.98,-12.91"/>
    </edge>
    <edge id=":J46_c1" function="crossing" crossingEdges="E40 -E40">
        <lane id=":J46_c1_0" index="0" allow="pedestrian" speed="2.78" length="6.40" width="4.00" shape="-3.20,-14.80 3.20,-14.80" outlineShape="-3.20,-16.80 3.20,-16.80 3.31,-15.58 3.64,-14.58 4.20,-13.80 4.98,-13.24 5.31,-13.13 3.20,-12.80 -3.20,-12.80 -5.31,-13.13 -4.98,-13.24 -4.20,-13.80 -3.64,-14.58 -3.31,-15.58"/>
    </edge>
    <edge id=":J46_c2" function="crossing" crossingEdges="-E43 E43">
        <lane id=":J46_c2_0" index="0" allow="pedestrian" speed="2.78" length="25.60" width="4.00" shape="-5.20,12.80 -5.20,-12.80" outlineShape="-7.20,12.90 -7.20,-12.90 -3.20,-16.80 -5.20,-16.80 -7.20,-14.80 -7.20,-13.00 -3.20,-16.80 -3.20,12.80 -7.20,13.00 -7.20,14.80 7.20,14.80 7.20,12.80 3.20,12.80 -3.20,12.80"/>
    </edge>
    <edge id=":J46_w0" function="walkingarea">
        <lane id=":J46_w0_0" index="0" allow="pedestrian" speed="2.78" length="9.03" width="4.00" shape="-3.20,12.80 -7.20,12.80 -7.20,14.80 7.20,14.80 7.20,12.80 3.20,12.80"/>
    </edge>
    <edge id=":J46_w1" function="walkingarea">
        <lane id=":J46_w1_0" index="0" allow="pedestrian" speed="2.78" length="3.30" width="4.00" shape="7.20,-12.80 7.20,-14.80 5.20,-16.80 3.20,-16.80 3.31,-15.58 3.64,-14.58 4.20,-13.80 4.98,-13.24 5.98,-12.91"/>
    </edge>
    <edge id=":J46_w2" function="walkingarea">
        <lane id=":J46_w2_0" index="0" allow="pedestrian" speed="2.78" length="3.30" width="4.00" shape="-3.20,-16.80 -5.20,-16.80 -7.20,-14.80 -7.20,-12.80 -5.98,-12.91 -4.98,-13.24 -4.20,-13.80 -3.64,-14.58 -3.31,-15.58"/>
    </edge>
    <edge id=":J47_0" function="internal">
        <lane id=":J47_0_0" index="0" disallow="pedestrian tram rail_urban rail rail_electric rail_fast ship container cable_car subway aircraft drone" speed="6.51" length="4.75" shape="95.20,-92.80 94.85,-95.25 93.80,-97.00 93.60,-97.12"/>
    </edge>
    <edge id=":J47_3" function="internal">
        <lane id=":J47_3_0" index="0" disallow="pedestrian tram rail_urban rail rail_electric rail_fast ship container cable_car subway aircraft drone" speed="6.51" length="4.28" shape="93.60,-97.12 92.05,-98.05 89.60,-98.40"/>
    </edge>
    <edge id=":J47_1" function="internal">
        <lane id=":J47_1_0" index="0" disallow="pedestrian tram rail_urban rail rail_electric rail_fast ship container cable_car subway aircraft drone" speed="9.32" length="19.63" shape="89.60,-101.60 96.25,-101.05 101.00,-99.40 103.85,-96.65 104.80,-92.80"/>
        <lane id=":J47_1_1" index="1" disallow="pedestrian tram rail_urban rail rail_electric rail_fast ship container cable_car subway aircraft drone" speed="8.67" length="16.85" shape="89.60,-101.60 94.85,-101.05 98.60,-99.40 100.85,-96.65 101.60,-92.80"/>
    </edge>
    <edge id=":J47_c0" function="crossing" crossingEdges="-E46 E46">
        <lane id=":J47_c0_0" index="0" allow="pedestrian" speed="2.78" length="12.80" width="4.00" shape="106.40,-94.80 93.60,-94.80" outlineShape="106.50,-92.80 93.50,-92.80 93.49,-94.02 93.16,-95.02 92.60,-95.80 91.82,-96.36 91.49,-96.47 93.60,-96.80 106.40,-96.80 107.77,-96.80 106.31,-99.69 103.70,-102.10 100.04,-103.82 95.34,-104.86 89.60,-105.20 89.60,-103.20 94.73,-102.91 98.93,-102.04 102.20,-100.60 104.53,-98.58 105.93,-95.98"/>
    </edge>
    <edge id=":J47_c1" function="crossing" crossingEdges="-E41 E41">
        <lane id=":J47_c1_0" index="0" allow="pedestrian" speed="2.78" length="6.40" width="4.00" shape="91.60,-96.80 91.60,-103.20" outlineShape="89.60,-96.70 89.60,-103.30 93.60,-104.96 89.60,-105.20 89.60,-103.20 93.60,-103.20 93.60,-96.80 93.27,-94.69 93.16,-95.02 92.60,-95.80 91.82,-96.36 90.82,-96.69"/>
    </edge>
    <edge id=":J47_w0" function="walkingarea">
        <lane id=":J47_w0_0" index="0" allow="pedestrian" speed="2.78" length="3.30" width="4.00" shape="89.60,-96.80 89.60,-94.80 91.60,-92.80 93.60,-92.80 93.49,-94.02 93.16,-95.02 92.60,-95.80 91.82,-96.36 90.82,-96.69"/>
    </edge>
    <edge id=":J47_w1" function="walkingarea">
        <lane id=":J47_w1_0" index="0" allow="pedestrian" speed="2.78" length="13.47" width="4.00" shape="106.40,-92.80 108.40,-92.80 107.88,-96.59 106.31,-99.69 103.70,-102.10 100.04,-103.82 95.34,-104.86 89.60,-105.20 89.60,-103.20 94.73,-102.91 98.93,-102.04 102.20,-100.60 104.53,-98.58 105.93,-95.98"/>
    </edge>
    <edge id=":J48_0" function="internal">
        <lane id=":J48_0_0" index="0" disallow="pedestrian tram rail_urban rail rail_electric rail_fast ship container cable_car subway aircraft drone" speed="6.51" length="4.75" shape="-1.60,-92.80 -1.95,-95.25 -3.00,-97.00 -3.20,-97.12"/>
    </edge>
    <edge id=":J48_1" function="internal">
        <lane id=":J48_1_0" index="0" disallow="pedestrian tram rail_urban rail rail_electric rail_fast ship container cable_car subway aircraft drone" speed="8.00" length="10.13" shape="-1.60,-92.80 -1.05,-96.65 0.60,-99.40 3.20,-100.96"/>
    </edge>
    <edge id=":J48_6" function="internal">
        <lane id=":J48_6_0" index="0" disallow="pedestrian tram rail_urban rail rail_electric rail_fast ship container cable_car subway aircraft drone" speed="6.51" length="4.28" shape="-3.20,-97.12 -4.75,-98.05 -7.20,-98.40"/>
    </edge>
    <edge id=":J48_7" function="internal">
        <lane id=":J48_7_0" index="0" disallow="pedestrian tram rail_urban rail rail_electric rail_fast ship container cable_car subway aircraft drone" speed="8.00" length="4.06" shape="3.20,-100.96 3.35,-101.05 7.20,-101.60"/>
    </edge>
    <edge id=":J48_2" function="internal">
        <lane id=":J48_2_0" index="0" disallow="pedestrian tram rail_urban rail rail_electric rail_fast ship container cable_car subway aircraft drone" speed="6.51" length="4.75" shape="7.20,-98.40 4.75,-98.05 3.00,-97.00 2.88,-96.80"/>
    </edge>
    <edge id=":J48_3" function="internal">
        <lane id=":J48_3_0" index="0" disallow="pedestrian tram rail_urban rail rail_electric rail_fast ship container cable_car subway aircraft drone" speed="13.89" length="14.40" shape="7.20,-98.40 -7.20,-98.40"/>
    </edge>
    <edge id=":J48_8" function="internal">
        <lane id=":J48_8_0" index="0" disallow="pedestrian tram rail_urban rail rail_electric rail_fast ship container cable_car subway aircraft drone" speed="6.51" length="4.28" shape="2.88,-96.80 1.95,-95.25 1.60,-92.80"/>
    </edge>
    <edge id=":J48_4" function="internal">
        <lane id=":J48_4_0" index="0" disallow="pedestrian tram rail_urban rail rail_electric rail_fast ship container cable_car subway aircraft drone" speed="13.89" length="14.40" shape="-7.20,-101.60 7.20,-101.60"/>
    </edge>
    <edge id=":J48_5" function="internal">
        <lane id=":J48_5_0" index="0" disallow="pedestrian tram rail_urban rail rail_electric rail_fast ship container cable_car subway aircraft drone" speed="8.00" length="4.07" shape="-7.20,-101.60 -3.35,-101.05 -3.20,-100.96"/>
    </edge>
    <edge id=":J48_9" function="internal">
        <lane id=":J48_9_0" index="0" disallow="pedestrian tram rail_urban rail rail_electric rail_fast ship container cable_car subway aircraft drone" speed="8.00" length="10.13" shape="-3.20,-100.96 -0.60,-99.40 1.05,-96.65 1.60,-92.80"/>
    </edge>
    <edge id=":J48_c0" function="crossing" crossingEdges="-E40 E40">
        <lane id=":J48_c0_0" index="0" allow="pedestrian" speed="2.78" length="6.40" width="4.00" shape="3.20,-94.80 -3.20,-94.80" outlineShape="3.20,-92.80 -3.20,-92.80 -3.31,-94.02 -3.64,-95.02 -4.20,-95.80 -4.98,-96.36 -5.31,-96.47 -3.20,-96.80 3.20,-96.80 5.31,-96.47 4.98,-96.36 4.20,-95.80 3.64,-95.02 3.31,-94.02"/>
    </edge>
    <edge id=":J48_c1" function="crossing" crossingEdges="E41 -E41">
        <lane id=":J48_c1_0" index="0" allow="pedestrian" speed="2.78" length="6.40" width="4.00" shape="5.20,-103.20 5.20,-96.80" outlineShape="7.20,-103.30 7.20,-96.70 3.20,-92.80 5.20,-92.80 7.20,-94.80 7.20,-96.60 3.20,-92.80 3.20,-103.20 7.20,-103.40 7.20,-105.20 -7.20,-105.20 -7.20,-103.20 -3.20,-103.20 3.20,-103.20"/>
    </edge>
    <edge id=":J48_c2" function="crossing" crossingEdges="E42 -E42">
        <lane id=":J48_c2_0" index="0" allow="pedestrian" speed="2.78" length="6.40" width="4.00" shape="-5.20,-96.80 -5.20,-103.20" outlineShape="-7.20,-96.70 -7.20,-103.30 -3.20,-103.20 -3.20,-92.80 -3.31,-94.02 -3.64,-95.02 -4.20,-95.80 -4.98,-96.36 -5.98,-96.69"/>
    </edge>
    <edge id=":J48_w0" function="walkingarea">
        <lane id=":J48_w0_0" index="0" allow="pedestrian" speed="2.78" length="3.30" width="4.00" shape="-7.20,-96.80 -7.20,-94.80 -5.20,-92.80 -3.20,-92.80 -3.31,-94.02 -3.64,-95.02 -4.20,-95.80 -4.98,-96.36 -5.98,-96.69"/>
    </edge>
    <edge id=":J48_w1" function="walkingarea">
        <lane id=":J48_w1_0" index="0" allow="pedestrian" speed="2.78" length="3.30" width="4.00" shape="3.20,-92.80 5.20,-92.80 7.20,-94.80 7.20,-96.80 5.98,-96.69 4.98,-96.36 4.20,-95.80 3.64,-95.02 3.31,-94.02"/>
    </edge>
    <edge id=":J48_w2" function="walkingarea">
        <lane id=":J48_w2_0" index="0" allow="pedestrian" speed="2.78" length="9.03" width="4.00" shape="3.20,-103.20 7.20,-103.20 7.20,-105.20 -7.20,-105.20 -7.20,-103.20 -3.20,-103.20"/>
    </edge>
    <edge id=":J49_0" function="internal">
        <lane id=":J49_0_0" index="0" disallow="pedestrian tram rail_urban rail rail_electric rail_fast ship container cable_car subway aircraft drone" speed="12.38" length="35.45" shape="-89.60,11.20 -96.25,9.45 -101.00,4.20 -103.85,-4.55 -104.80,-16.80"/>
        <lane id=":J49_0_1" index="1" disallow="pedestrian tram rail_urban rail rail_electric rail_fast ship container cable_car subway aircraft drone" speed="11.49" length="30.39" shape="-89.60,8.00 -94.85,6.45 -98.60,1.80 -100.85,-5.95 -101.60,-16.80"/>
    </edge>
    <edge id=":J49_2" function="internal">
        <lane id=":J49_2_0" index="0" disallow="pedestrian tram rail_urban rail rail_electric rail_fast ship container cable_car subway aircraft drone" speed="6.51" length="9.03" shape="-95.20,-16.80 -94.85,-14.35 -93.80,-12.60 -92.05,-11.55 -89.60,-11.20"/>
        <lane id=":J49_2_1" index="1" disallow="pedestrian tram rail_urban rail rail_electric rail_fast ship container cable_car subway aircraft drone" speed="8.00" length="14.19" shape="-98.40,-16.80 -97.85,-12.95 -96.20,-10.20 -93.45,-8.55 -89.60,-8.00"/>
        <lane id=":J49_2_2" index="2" disallow="pedestrian tram rail_urban rail rail_electric rail_fast ship container cable_car subway aircraft drone" speed="8.67" length="16.85" shape="-98.40,-16.80 -97.85,-11.55 -96.20,-7.80 -93.45,-5.55 -89.60,-4.80"/>
        <lane id=":J49_2_3" index="3" disallow="pedestrian tram rail_urban rail rail_electric rail_fast ship container cable_car subway aircraft drone" speed="9.32" length="19.63" shape="-98.40,-16.80 -97.85,-10.15 -96.20,-5.40 -93.45,-2.55 -89.60,-1.60"/>
    </edge>
    <edge id=":J49_w0" function="walkingarea">
        <lane id=":J49_w0_0" index="0" allow="pedestrian" speed="2.78" length="35.40" width="2.00" shape="-106.40,-16.80 -108.40,-16.80 -107.88,-7.14 -106.31,0.76 -103.70,6.90 -100.04,11.29 -95.34,13.92 -89.60,14.80 -89.60,12.80 -94.73,11.98 -98.93,9.51 -102.20,5.40 -104.53,-0.36 -105.93,-7.76"/>
    </edge>
    <edge id=":J49_w1" function="walkingarea">
        <lane id=":J49_w1_0" index="0" allow="pedestrian" speed="2.78" length="4.24" width="2.00" shape="-89.60,-12.80 -89.60,-14.80 -91.60,-16.80 -93.60,-16.80 -93.49,-15.58 -93.16,-14.58 -92.60,-13.80 -91.82,-13.24 -90.82,-12.91"/>
    </edge>
    <edge id=":J50_0" function="internal">
        <lane id=":J50_0_0" index="0" disallow="pedestrian tram rail_urban rail rail_electric rail_fast ship container cable_car subway aircraft drone" speed="12.38" length="35.45" shape="104.80,-16.80 103.85,-4.55 101.00,4.20 96.25,9.45 89.60,11.20"/>
        <lane id=":J50_0_1" index="1" disallow="pedestrian tram rail_urban rail rail_electric rail_fast ship container cable_car subway aircraft drone" speed="11.49" length="30.39" shape="101.60,-16.80 100.85,-5.95 98.60,1.80 94.85,6.45 89.60,8.00"/>
        <lane id=":J50_0_2" index="2" disallow="pedestrian tram rail_urban rail rail_electric rail_fast ship container cable_car subway aircraft drone" speed="10.96" length="27.54" shape="101.60,-16.80 100.85,-7.35 98.60,-0.60 94.85,3.45 89.60,4.80"/>
        <lane id=":J50_0_3" index="3" disallow="pedestrian tram rail_urban rail rail_electric rail_fast ship container cable_car subway aircraft drone" speed="10.41" length="24.73" shape="101.60,-16.80 100.85,-8.75 98.60,-3.00 94.85,0.45 89.60,1.60"/>
    </edge>
    <edge id=":J50_4" function="internal">
        <lane id=":J50_4_0" index="0" disallow="pedestrian tram rail_urban rail rail_electric rail_fast ship container cable_car subway aircraft drone" speed="6.51" length="9.03" shape="89.60,-11.20 92.05,-11.55 93.80,-12.60 94.85,-14.35 95.20,-16.80"/>
        <lane id=":J50_4_1" index="1" disallow="pedestrian tram rail_urban rail rail_electric rail_fast ship container cable_car subway aircraft drone" speed="8.00" length="14.19" shape="89.60,-8.00 93.45,-8.55 96.20,-10.20 97.85,-12.95 98.40,-16.80"/>
    </edge>
    <edge id=":J50_w0" function="walkingarea">
        <lane id=":J50_w0_0" index="0" allow="pedestrian" speed="2.78" length="35.40" width="2.00" shape="89.60,12.80 89.60,14.80 95.34,13.92 100.04,11.29 103.70,6.90 106.31,0.76 107.88,-7.14 108.40,-16.80 106.40,-16.80 105.93,-7.76 104.53,-0.36 102.20,5.40 98.93,9.51 94.73,11.98"/>
    </edge>
    <edge id=":J50_w1" function="walkingarea">
        <lane id=":J50_w1_0" index="0" allow="pedestrian" speed="2.78" length="4.24" width="2.00" shape="93.60,-16.80 91.60,-16.80 89.60,-14.80 89.60,-12.80 90.82,-12.91 91.82,-13.24 92.60,-13.80 93.16,-14.58 93.49,-15.58"/>
    </edge>

    <edge id="-E40" from="J48" to="J46" priority="-1" spreadType="roadCenter">
        <lane id="-E40_0" index="0" allow="pedestrian" speed="13.89" length="76.00" width="2.00" shape="4.20,-92.80 4.20,-16.80"/>
        <lane id="-E40_1" index="1" disallow="pedestrian tram rail_urban rail rail_electric rail_fast ship container cable_car subway aircraft drone" speed="13.89" length="76.00" shape="1.60,-92.80 1.60,-16.80"/>
    </edge>
    <edge id="-E41" from="J47" to="J48" priority="-1" spreadType="roadCenter">
        <lane id="-E41_0" index="0" allow="pedestrian" speed="13.89" length="82.40" width="2.00" shape="89.60,-95.80 7.20,-95.80"/>
        <lane id="-E41_1" index="1" disallow="pedestrian tram rail_urban rail rail_electric rail_fast ship container cable_car subway aircraft drone" speed="13.89" length="82.40" shape="89.60,-98.40 7.20,-98.40"/>
    </edge>
    <edge id="-E42" from="J44" to="J48" priority="-1" spreadType="roadCenter">
        <lane id="-E42_0" index="0" allow="pedestrian" speed="13.89" length="82.40" width="2.00" shape="-89.60,-104.20 -7.20,-104.20"/>
        <lane id="-E42_1" index="1" disallow="pedestrian tram rail_urban rail rail_electric rail_fast ship container cable_car subway aircraft drone" speed="13.89" length="82.40" shape="-89.60,-101.60 -7.20,-101.60"/>
    </edge>
    <edge id="-E43" from="J46" to="J49" priority="-1" spreadType="roadCenter">
        <lane id="-E43_0" index="0" allow="pedestrian" speed="13.89" length="82.40" width="2.00" shape="-7.20,13.80 -89.60,13.80"/>
        <lane id="-E43_1" index="1" disallow="pedestrian tram rail_urban rail rail_electric rail_fast ship container cable_car subway aircraft drone" speed="13.89" length="82.40" shape="-7.20,11.20 -89.60,11.20"/>
        <lane id="-E43_2" index="2" disallow="pedestrian tram rail_urban rail rail_electric rail_fast ship container cable_car subway aircraft drone" speed="13.89" length="82.40" shape="-7.20,8.00 -89.60,8.00"/>
        <lane id="-E43_3" index="3" disallow="pedestrian tram rail_urban rail rail_electric rail_fast ship container cable_car subway aircraft drone" speed="13.89" length="82.40" shape="-7.20,4.80 -89.60,4.80"/>
        <lane id="-E43_4" index="4" disallow="pedestrian tram rail_urban rail rail_electric rail_fast ship container cable_car subway aircraft drone" speed="13.89" length="82.40" shape="-7.20,1.60 -89.60,1.60"/>
    </edge>
    <edge id="-E44" from="J50" to="J46" priority="-1" spreadType="roadCenter">
        <lane id="-E44_0" index="0" allow="pedestrian" speed="13.89" length="82.40" width="2.00" shape="89.60,13.80 7.20,13.80"/>
        <lane id="-E44_1" index="1" disallow="pedestrian tram rail_urban rail rail_electric rail_fast ship container cable_car subway aircraft drone" speed="13.89" length="82.40" shape="89.60,11.20 7.20,11.20"/>
        <lane id="-E44_2" index="2" disallow="pedestrian tram rail_urban rail rail_electric rail_fast ship container cable_car subway aircraft drone" speed="13.89" length="82.40" shape="89.60,8.00 7.20,8.00"/>
        <lane id="-E44_3" index="3" disallow="pedestrian tram rail_urban rail rail_electric rail_fast ship container cable_car subway aircraft drone" speed="13.89" length="82.40" shape="89.60,4.80 7.20,4.80"/>
        <lane id="-E44_4" index="4" disallow="pedestrian tram rail_urban rail rail_electric rail_fast ship container cable_car subway aircraft drone" speed="13.89" length="82.40" shape="89.60,1.60 7.20,1.60"/>
    </edge>
    <edge id="-E45" from="J44" to="J49" priority="-1" spreadType="roadCenter">
        <lane id="-E45_0" index="0" allow="pedestrian" speed="13.89" length="76.00" width="2.00" shape="-92.60,-92.80 -92.60,-16.80"/>
        <lane id="-E45_1" index="1" disallow="pedestrian tram rail_urban rail rail_electric rail_fast ship container cable_car subway aircraft drone" speed="13.89" length="76.00" shape="-95.20,-92.80 -95.20,-16.80"/>
        <lane id="-E45_2" index="2" disallow="pedestrian tram rail_urban rail rail_electric rail_fast ship container cable_car subway aircraft drone" speed="13.89" length="76.00" shape="-98.40,-92.80 -98.40,-16.80"/>
    </edge>
    <edge id="-E46" from="J47" to="J50" priority="-1" spreadType="roadCenter">
        <lane id="-E46_0" index="0" allow="pedestrian" speed="13.89" length="76.00" width="2.00" shape="107.40,-92.80 107.40,-16.80"/>
        <lane id="-E46_1" index="1" disallow="pedestrian tram rail_urban rail rail_electric rail_fast ship container cable_car subway aircraft drone" speed="13.89" length="76.00" shape="104.80,-92.80 104.80,-16.80"/>
        <lane id="-E46_2" index="2" disallow="pedestrian tram rail_urban rail rail_electric rail_fast ship container cable_car subway aircraft drone" speed="13.89" length="76.00" shape="101.60,-92.80 101.60,-16.80"/>
    </edge>
    <edge id="E40" from="J46" to="J48" priority="-1" spreadType="roadCenter">
        <lane id="E40_0" index="0" allow="pedestrian" speed="13.89" length="76.00" width="2.00" shape="-4.20,-16.80 -4.20,-92.80"/>
        <lane id="E40_1" index="1" disallow="pedestrian tram rail_urban rail rail_electric rail_fast ship container cable_car subway aircraft drone" speed="13.89" length="76.00" shape="-1.60,-16.80 -1.60,-92.80"/>
    </edge>
    <edge id="E41" from="J48" to="J47" priority="-1" spreadType="roadCenter">
        <lane id="E41_0" index="0" allow="pedestrian" speed="13.89" length="82.40" width="2.00" shape="7.20,-104.20 89.60,-104.20"/>
        <lane id="E41_1" index="1" disallow="pedestrian tram rail_urban rail rail_electric rail_fast ship container cable_car subway aircraft drone" speed="13.89" length="82.40" shape="7.20,-101.60 89.60,-101.60"/>
    </edge>
    <edge id="E42" from="J48" to="J44" priority="-1" spreadType="roadCenter">
        <lane id="E42_0" index="0" allow="pedestrian" speed="13.89" length="82.40" width="2.00" shape="-7.20,-95.80 -89.60,-95.80"/>
        <lane id="E42_1" index="1" disallow="pedestrian tram rail_urban rail rail_electric rail_fast ship container cable_car subway aircraft drone" speed="13.89" length="82.40" shape="-7.20,-98.40 -89.60,-98.40"/>
    </edge>
    <edge id="E43" from="J49" to="J46" priority="-1" spreadType="roadCenter">
        <lane id="E43_0" index="0" allow="pedestrian" speed="13.89" length="82.40" width="2.00" shape="-89.60,-13.80 -7.20,-13.80"/>
        <lane id="E43_1" index="1" disallow="pedestrian tram rail_urban rail rail_electric rail_fast ship container cable_car subway aircraft drone" speed="13.89" length="82.40" shape="-89.60,-11.20 -7.20,-11.20"/>
        <lane id="E43_2" index="2" disallow="pedestrian tram rail_urban rail rail_electric rail_fast ship container cable_car subway aircraft drone" speed="13.89" length="82.40" shape="-89.60,-8.00 -7.20,-8.00"/>
        <lane id="E43_3" index="3" disallow="pedestrian tram rail_urban rail rail_electric rail_fast ship container cable_car subway aircraft drone" speed="13.89" length="82.40" shape="-89.60,-4.80 -7.20,-4.80"/>
        <lane id="E43_4" index="4" disallow="pedestrian tram rail_urban rail rail_electric rail_fast ship container cable_car subway aircraft drone" speed="13.89" length="82.40" shape="-89.60,-1.60 -7.20,-1.60"/>
    </edge>
    <edge id="E44" from="J46" to="J50" priority="-1" spreadType="roadCenter">
        <lane id="E44_0" index="0" allow="pedestrian" speed="13.89" length="82.40" width="2.00" shape="7.20,-13.80 89.60,-13.80"/>
        <lane id="E44_1" index="1" disallow="pedestrian tram rail_urban rail rail_electric rail_fast ship container cable_car subway aircraft drone" speed="13.89" length="82.40" shape="7.20,-11.20 89.60,-11.20"/>
        <lane id="E44_2" index="2" disallow="pedestrian tram rail_urban rail rail_electric rail_fast ship container cable_car subway aircraft drone" speed="13.89" length="82.40" shape="7.20,-8.00 89.60,-8.00"/>