<?xml version="1.0" encoding="UTF-8"?>

<!-- generated on 2026-06-07T13:38:28.194867+00:00 by Eclipse SUMO netconvert 1.27.0
<netconvertConfiguration xmlns:xsi="http://www.w3.org/2001/XMLSchema-instance" xsi:noNamespaceSchemaLocation="http://sumo.dlr.de/xsd/netconvertConfiguration.xsd">

    <input>
        <sumo-net-file value="/home/ryang/ITSC2020_CAV_impact/Urban/Simulations/Base/DCC.net.xml"/>
    </input>

    <output>
        <output-file value="/home/ryang/sumo_project/dublin_sub.net.xml"/>
        <output.street-names value="true"/>
    </output>

    <processing>
        <geometry.min-radius.fix.railways value="false"/>
        <geometry.avoid-overlap value="false"/>
        <geometry.max-grade.fix value="false"/>
        <offset.disable-normalization value="true"/>
        <lefthand value="1"/>
    </processing>

    <edge_removal>
        <keep-edges.in-geo-boundary value="-6.266,53.348,-6.252,53.355"/>
    </edge_removal>

    <junctions>
        <no-turnarounds value="true"/>
    </junctions>

    <report>
        <no-warnings value="true"/>
    </report>

</netconvertConfiguration>
-->

<net version="1.20" junctionCornerDetail="5" lefthand="true" limitTurnSpeed="5.50" avoidOverlap="0" xmlns:xsi="http://www.w3.org/2001/XMLSchema-instance" xsi:noNamespaceSchemaLocation="http://sumo.dlr.de/xsd/net_file.xsd">

    <location netOffset="-677749.85,-5911444.78" convBoundary="4142.55,2987.59,5270.51,3905.15" origBoundary="-6.368224,53.318846,-6.186539,53.396212" projParameter="+proj=utm +zone=29 +ellps=WGS84 +datum=WGS84 +units=m +no_defs"/>

    <type id="highway.living_street" priority="2" numLanes="1" speed="2.78" disallow="tram rail_urban rail rail_electric ship" oneway="0"/>
    <type id="highway.residential" priority="3" numLanes="1" speed="13.89" disallow="tram rail_urban rail rail_electric ship" oneway="0"/>
    <type id="highway.secondary" priority="11" numLanes="2" speed="27.78" disallow="tram rail_urban rail rail_electric ship" oneway="0"/>
    <type id="highway.secondary_link" priority="6" numLanes="1" speed="22.22" disallow="tram rail_urban rail rail_electric ship" oneway="0"/>
    <type id="highway.tertiary" priority="10" numLanes="1" speed="22.22" disallow="tram rail_urban rail rail_electric ship" oneway="0"/>
    <type id="highway.unclassified" priority="4" numLanes="1" speed="13.89" disallow="tram rail_urban rail rail_electric ship" oneway="0"/>

    <edge id=":111887642_0" function="internal">
        <lane id=":111887642_0_0" index="0" disallow="tram rail_urban rail rail_electric rail_fast ship" speed="4.19" length="1.27" shape="5105.17,3311.83 5105.44,3312.01 5105.66,3312.22 5105.84,3312.48 5105.96,3312.78"/>
    </edge>
    <edge id=":1293998619_0" function="internal">
        <lane id=":1293998619_0_0" index="0" disallow="tram rail_urban rail rail_electric rail_fast ship" speed="13.89" length="20.67" shape="5135.27,3218.73 5141.17,3217.05 5145.10,3215.31 5149.00,3213.70 5154.82,3212.42"/>
        <lane id=":1293998619_0_1" index="1" disallow="tram rail_urban rail rail_electric rail_fast ship" speed="13.89" length="20.67" shape="5134.61,3215.60 5140.55,3213.91 5144.52,3212.16 5148.44,3210.54 5154.27,3209.26"/>
    </edge>
    <edge id=":1293998619_2" function="internal">
        <lane id=":1293998619_2_0" index="0" disallow="tram rail_urban rail rail_electric rail_fast ship" speed="13.89" length="21.13" shape="5134.61,3215.60 5140.50,3213.91 5144.18,3211.75 5147.42,3208.72 5152.01,3204.42"/>
        <lane id=":1293998619_2_1" index="1" disallow="tram rail_urban rail rail_electric rail_fast ship" speed="13.89" length="19.50" shape="5133.95,3212.47 5139.37,3210.89 5142.73,3208.84 5145.69,3206.00 5149.91,3202.00"/>
        <lane id=":1293998619_2_2" index="2" disallow="tram rail_urban rail rail_electric rail_fast ship" speed="13.89" length="17.88" shape="5133.29,3209.34 5138.25,3207.86 5141.29,3205.94 5143.96,3203.27 5147.82,3199.58"/>
    </edge>
    <edge id=":1294004365_0" function="internal">
        <lane id=":1294004365_0_0" index="0" disallow="tram rail_urban rail rail_electric rail_fast ship" speed="6.81" length="8.15" shape="5113.74,3228.11 5114.09,3225.91 5114.99,3224.21 5116.43,3222.99 5118.42,3222.27"/>
        <lane id=":1294004365_0_1" index="1" disallow="tram rail_urban rail rail_electric rail_fast ship" speed="7.64" length="10.49" shape="5113.74,3228.11 5114.09,3224.48 5114.88,3221.78 5116.10,3220.00 5117.76,3219.14"/>
    </edge>
    <edge id=":1294004365_2" function="internal">
        <lane id=":1294004365_2_0" index="0" disallow="tram rail_urban rail rail_electric rail_fast ship" speed="13.89" length="8.84" shape="5108.79,3223.31 5111.67,3223.23 5113.64,3223.12 5115.59,3222.84 5118.42,3222.27"/>
        <lane id=":1294004365_2_1" index="1" disallow="tram rail_urban rail rail_electric rail_fast ship" speed="13.89" length="8.84" shape="5108.71,3220.11 5111.41,3220.04 5113.27,3219.93 5115.10,3219.67 5117.76,3219.14"/>
        <lane id=":1294004365_2_2" index="2" disallow="tram rail_urban rail rail_electric rail_fast ship" speed="13.89" length="8.84" shape="5108.62,3216.91 5111.16,3216.85 5112.89,3216.75 5114.61,3216.50 5117.10,3216.01"/>
        <lane id=":1294004365_2_3" index="3" disallow="tram rail_urban rail rail_electric rail_fast ship" speed="13.89" length="8.84" shape="5108.54,3213.71 5110.90,3213.65 5112.52,3213.56 5114.13,3213.34 5116.44,3212.88"/>
    </edge>
    <edge id=":1294004372_0" function="internal">
        <lane id=":1294004372_0_0" index="0" disallow="tram rail_urban rail rail_electric rail_fast ship" speed="13.89" length="0.26" shape="5054.10,3230.84 5054.30,3230.51"/>
        <lane id=":1294004372_0_1" index="1" disallow="tram rail_urban rail rail_electric rail_fast ship" speed="13.89" length="0.26" shape="5051.44,3229.07 5051.50,3228.96"/>
    </edge>
    <edge id=":1294005409_0" function="internal">
        <lane id=":1294005409_0_0" index="0" disallow="tram rail_urban rail rail_electric rail_fast ship" speed="8.33" length="0.10" shape="4722.27,3342.65 4722.27,3342.65"/>
    </edge>
    <edge id=":1294005411_0" function="internal">
        <lane id=":1294005411_0_0" index="0" disallow="tram rail_urban rail rail_electric rail_fast ship" speed="8.33" length="13.63" shape="4861.12,3482.62 4848.43,3477.64"/>
    </edge>
    <edge id=":1294005411_1" function="internal">
        <lane id=":1294005411_1_0" index="0" disallow="tram rail_urban rail rail_electric rail_fast ship" speed="7.97" length="13.65" shape="4861.12,3482.62 4857.67,3481.89 4854.71,3482.53 4852.23,3484.53 4850.25,3487.89"/>
    </edge>
    <edge id=":1294005411_2" function="internal">
        <lane id=":1294005411_2_0" index="0" disallow="tram rail_urban rail rail_electric rail_fast ship" speed="6.47" length="8.64" shape="4853.19,3489.16 4854.46,3486.96 4856.02,3485.63 4857.86,3485.18 4859.98,3485.61"/>
    </edge>
    <edge id=":1294005411_3" function="internal">
        <lane id=":1294005411_3_0" index="0" disallow="tram rail_urban rail rail_electric rail_fast ship" speed="7.96" length="14.28" shape="4853.19,3489.16 4854.21,3485.37 4853.76,3482.18 4851.83,3479.61 4848.43,3477.64"/>
    </edge>
    <edge id=":1294005411_4" function="internal">
        <lane id=":1294005411_4_0" index="0" disallow="tram rail_urban rail rail_electric rail_fast ship" speed="6.46" length="9.03" shape="4847.24,3480.61 4849.39,3481.86 4850.61,3483.48 4850.90,3485.50 4850.25,3487.89"/>
    </edge>
    <edge id=":1294005411_5" function="internal">
        <lane id=":1294005411_5_0" index="0" disallow="tram rail_urban rail rail_electric rail_fast ship" speed="8.33" length="13.68" shape="4847.24,3480.61 4859.98,3485.61"/>
    </edge>
    <edge id=":1294005414_0" function="internal">
        <lane id=":1294005414_0_0" index="0" disallow="tram rail_urban rail rail_electric rail_fast ship" speed="7.33" length="11.00" shape="4675.20,3528.62 4672.24,3527.08 4670.36,3525.19 4669.56,3522.95 4669.84,3520.35"/>
    </edge>
    <edge id=":1294005414_1" function="internal">
        <lane id=":1294005414_1_0" index="0" disallow="tram rail_urban rail rail_electric rail_fast ship" speed="8.33" length="14.30" shape="4675.20,3528.62 4661.93,3523.29"/>
    </edge>
    <edge id=":1294005414_2" function="internal">
        <lane id=":1294005414_2_0" index="0" disallow="tram rail_urban rail rail_electric rail_fast ship" speed="7.91" length="3.97" shape="4675.20,3528.62 4671.33,3527.72"/>
    </edge>
    <edge id=":1294005414_9" function="internal">
        <lane id=":1294005414_9_0" index="0" disallow="tram rail_urban rail rail_electric rail_fast ship" speed="7.91" length="10.42" shape="4671.33,3527.72 4668.16,3528.31 4665.69,3530.38 4663.93,3533.95"/>
    </edge>
    <edge id=":1294005414_3" function="internal">
        <lane id=":1294005414_3_0" index="0" disallow="tram rail_urban rail rail_electric rail_fast ship" speed="6.39" length="9.04" shape="4666.97,3534.95 4668.08,3532.71 4669.62,3531.41 4671.61,3531.04 4674.04,3531.61"/>
    </edge>
    <edge id=":1294005414_4" function="internal">
        <lane id=":1294005414_4_0" index="0" disallow="tram rail_urban rail rail_electric rail_fast ship" speed="8.33" length="14.89" shape="4666.97,3534.95 4667.88,3531.34 4668.46,3527.67 4669.01,3523.99 4669.84,3520.35"/>
    </edge>
    <edge id=":1294005414_5" function="internal">
        <lane id=":1294005414_5_0" index="0" disallow="tram rail_urban rail rail_electric rail_fast ship" speed="8.24" length="14.25" shape="4666.97,3534.95 4667.69,3531.06 4667.09,3527.82 4665.17,3525.23 4661.93,3523.29"/>
    </edge>
    <edge id=":1294005414_6" function="internal">
        <lane id=":1294005414_6_0" index="0" disallow="tram rail_urban rail rail_electric rail_fast ship" speed="6.80" length="9.36" shape="4660.70,3526.25 4662.80,3527.52 4664.04,3529.22 4664.42,3531.37 4663.93,3533.95"/>
    </edge>
    <edge id=":1294005414_7" function="internal">
        <lane id=":1294005414_7_0" index="0" disallow="tram rail_urban rail rail_electric rail_fast ship" speed="8.33" length="14.38" shape="4660.70,3526.25 4674.04,3531.61"/>
    </edge>
    <edge id=":1294005414_8" function="internal">
        <lane id=":1294005414_8_0" index="0" disallow="tram rail_urban rail rail_electric rail_fast ship" speed="7.32" length="3.25" shape="4660.70,3526.25 4663.75,3526.90 4663.87,3526.87"/>
    </edge>
    <edge id=":1294005414_10" function="internal">
        <lane id=":1294005414_10_0" index="0" disallow="tram rail_urban rail rail_electric rail_fast ship" speed="7.32" length="9.41" shape="4663.87,3526.87 4666.28,3526.14 4668.31,3523.96 4669.84,3520.35"/>
    </edge>
    <edge id=":1294005536_0" function="internal">
        <lane id=":1294005536_0_0" index="0" disallow="tram rail_urban rail rail_electric rail_fast ship" speed="8.33" length="13.84" shape="4667.50,3751.76 4665.39,3754.64 4663.33,3757.29 4661.19,3759.87 4658.82,3762.54"/>
    </edge>
    <edge id=":1294005536_1" function="internal">
        <lane id=":1294005536_1_0" index="0" disallow="tram rail_urban rail rail_electric rail_fast ship" speed="7.99" length="3.90" shape="4667.50,3751.76 4665.70,3755.23"/>
    </edge>
    <edge id=":1294005536_6" function="internal">
        <lane id=":1294005536_6_0" index="0" disallow="tram rail_urban rail rail_electric rail_fast ship" speed="7.99" length="10.32" shape="4665.70,3755.23 4665.45,3758.43 4666.74,3761.36 4669.58,3764.04"/>
    </edge>
    <edge id=":1294005536_2" function="internal">
        <lane id=":1294005536_2_0" index="0" disallow="tram rail_urban rail rail_electric rail_fast ship" speed="6.49" length="9.03" shape="4671.42,3761.42 4669.62,3759.72 4668.80,3757.86 4668.96,3755.82 4670.10,3753.62"/>
    </edge>
    <edge id=":1294005536_3" function="internal">
        <lane id=":1294005536_3_0" index="0" disallow="tram rail_urban rail rail_electric rail_fast ship" speed="8.33" length="14.06" shape="4671.42,3761.42 4667.99,3759.63 4664.75,3759.22 4661.69,3760.19 4658.82,3762.54"/>
    </edge>
    <edge id=":1294005536_4" function="internal">
        <lane id=":1294005536_4_0" index="0" disallow="tram rail_urban rail rail_electric rail_fast ship" speed="6.92" length="9.35" shape="4661.19,3764.70 4663.08,3763.15 4665.11,3762.53 4667.28,3762.82 4669.58,3764.04"/>
    </edge>
    <edge id=":1294005536_5" function="internal">
        <lane id=":1294005536_5_0" index="0" disallow="tram rail_urban rail rail_electric rail_fast ship" speed="8.33" length="14.22" shape="4661.19,3764.70 4663.59,3761.98 4665.82,3759.30 4667.95,3756.55 4670.10,3753.62"/>
    </edge>
    <edge id=":131032890_0" function="internal">
        <lane id=":131032890_0_0" index="0" disallow="tram rail_urban rail rail_electric rail_fast ship" speed="8.33" length="11.71" shape="5062.88,3422.10 5061.31,3424.92 5059.77,3427.06 5058.26,3429.21 5056.81,3432.08"/>
    </edge>
    <edge id=":131032890_1" function="internal">
        <lane id=":131032890_1_0" index="0" disallow="tram rail_urban rail rail_electric rail_fast ship" speed="7.35" length="10.78" shape="5062.88,3422.10 5062.29,3424.50 5062.78,3426.77 5064.35,3428.90 5067.02,3430.91"/>
    </edge>
    <edge id=":131032890_2" function="internal">
        <lane id=":131032890_2_0" index="0" disallow="tram rail_urban rail rail_electric rail_fast ship" speed="6.20" length="9.05" shape="5059.77,3433.30 5061.06,3431.11 5062.69,3429.99 5064.68,3429.92 5067.02,3430.91"/>
    </edge>
    <edge id=":131034113_0" function="internal">
        <lane id=":131034113_0_0" index="0" disallow="tram rail_urban rail rail_electric rail_fast ship" speed="6.52" length="9.07" shape="5002.10,3565.13 5000.83,3567.28 4999.19,3568.52 4997.17,3568.83 4994.77,3568.23"/>
    </edge>
    <edge id=":131034113_1" function="internal">
        <lane id=":131034113_1_0" index="0" disallow="tram rail_urban rail rail_electric rail_fast ship" speed="8.33" length="14.48" shape="5002.10,3565.13 4996.70,3578.57"/>
    </edge>
    <edge id=":131034113_2" function="internal">
        <lane id=":131034113_2_0" index="0" disallow="tram rail_urban rail rail_electric rail_fast ship" speed="7.98" length="4.14" shape="5002.10,3565.13 5001.14,3568.92 5001.17,3569.15"/>
    </edge>
    <edge id=":131034113_12" function="internal">
        <lane id=":131034113_12_0" index="0" disallow="tram rail_urban rail rail_electric rail_fast ship" speed="7.98" length="10.10" shape="5001.17,3569.15 5001.63,3572.10 5003.57,3574.65 5006.96,3576.60"/>
    </edge>
    <edge id=":131034113_3" function="internal">
        <lane id=":131034113_3_0" index="0" disallow="tram rail_urban rail rail_electric rail_fast ship" speed="6.48" length="9.03" shape="5008.14,3573.62 5005.99,3572.39 5004.76,3570.77 5004.45,3568.76 5005.06,3566.35"/>
    </edge>
    <edge id=":131034113_4" function="internal">
        <lane id=":131034113_4_0" index="0" disallow="tram rail_urban rail rail_electric rail_fast ship" speed="8.33" length="14.42" shape="5008.14,3573.62 4994.77,3568.23"/>
    </edge>
    <edge id=":131034113_5" function="internal">
        <lane id=":131034113_5_0" index="0" disallow="tram rail_urban rail rail_electric rail_fast ship" speed="8.00" length="14.23" shape="5008.14,3573.62 5004.34,3572.71 5001.17,3573.23 4998.62,3575.18 4996.70,3578.57"/>
    </edge>
    <edge id=":131034113_6" function="internal">
        <lane id=":131034113_6_0" index="0" disallow="tram rail_urban rail rail_electric rail_fast ship" speed="6.51" length="9.06" shape="4999.68,3579.74 5000.90,3577.59 5002.52,3576.34 5004.54,3576.01 5006.96,3576.60"/>
    </edge>
    <edge id=":131034113_7" function="internal">
        <lane id=":131034113_7_0" index="0" disallow="tram rail_urban rail rail_electric rail_fast ship" speed="8.33" length="14.43" shape="4999.68,3579.74 5005.06,3566.35"/>
    </edge>
    <edge id=":131034113_8" function="internal">
        <lane id=":131034113_8_0" index="0" disallow="tram rail_urban rail rail_electric rail_fast ship" speed="8.06" length="4.01" shape="4999.68,3579.74 5000.57,3575.95 5000.55,3575.83"/>
    </edge>
    <edge id=":131034113_13" function="internal">
        <lane id=":131034113_13_0" index="0" disallow="tram rail_urban rail rail_electric rail_fast ship" speed="8.06" length="10.21" shape="5000.55,3575.83 5000.05,3572.77 4998.12,3570.20 4994.77,3568.23"/>
    </edge>
    <edge id=":131034113_9" function="internal">
        <lane id=":131034113_9_0" index="0" disallow="tram rail_urban rail rail_electric rail_fast ship" speed="6.57" length="9.12" shape="4993.56,3571.19 4995.70,3572.45 4996.94,3574.10 4997.27,3576.14 4996.70,3578.57"/>
    </edge>
    <edge id=":131034113_10" function="internal">
        <lane id=":131034113_10_0" index="0" disallow="tram rail_urban rail rail_electric rail_fast ship" speed="8.33" length="14.46" shape="4993.56,3571.19 5006.96,3576.60"/>
    </edge>
    <edge id=":131034113_11" function="internal">
        <lane id=":131034113_11_0" index="0" disallow="tram rail_urban rail rail_electric rail_fast ship" speed="8.01" length="14.23" shape="4993.56,3571.19 4997.32,3572.14 5000.50,3571.65 5003.08,3569.72 5005.06,3566.35"/>
    </edge>
    <edge id=":131034281_0" function="internal">
        <lane id=":131034281_0_0" index="0" disallow="tram rail_urban rail rail_electric rail_fast ship" speed="13.89" length="14.45" shape="4908.53,3526.08 4902.46,3539.18"/>
    </edge>
    <edge id=":131034281_1" function="internal">
        <lane id=":131034281_1_0" index="0" disallow="tram rail_urban rail rail_electric rail_fast ship" speed="7.93" length="4.13" shape="4908.53,3526.08 4907.38,3529.86 4907.40,3530.03"/>
    </edge>
    <edge id=":131034281_6" function="internal">
        <lane id=":131034281_6_0" index="0" disallow="tram rail_urban rail rail_electric rail_fast ship" speed="7.93" length="10.21" shape="4907.40,3530.03 4907.74,3533.06 4909.61,3535.68 4913.00,3537.71"/>
    </edge>
    <edge id=":131034281_2" function="internal">
        <lane id=":131034281_2_0" index="0" disallow="tram rail_urban rail rail_electric rail_fast ship" speed="6.42" length="9.04" shape="4914.24,3534.77 4912.11,3533.48 4910.93,3531.83 4910.70,3529.82 4911.43,3527.43"/>
    </edge>
    <edge id=":131034281_3" function="internal">
        <lane id=":131034281_3_0" index="0" disallow="tram rail_urban rail rail_electric rail_fast ship" speed="8.11" length="14.26" shape="4914.24,3534.77 4910.44,3533.75 4907.21,3534.14 4904.54,3535.96 4902.46,3539.18"/>
    </edge>
    <edge id=":131034281_4" function="internal">
        <lane id=":131034281_4_0" index="0" disallow="tram rail_urban rail rail_electric rail_fast ship" speed="6.63" length="9.21" shape="4905.36,3540.52 4906.71,3538.45 4908.43,3537.29 4910.53,3537.05 4913.00,3537.71"/>
    </edge>
    <edge id=":131034281_5" function="internal">
        <lane id=":131034281_5_0" index="0" disallow="tram rail_urban rail rail_electric rail_fast ship" speed="13.89" length="14.42" shape="4905.36,3540.52 4911.43,3527.43"/>
    </edge>
    <edge id=":131034503_0" function="internal">
        <lane id=":131034503_0_0" index="0" disallow="tram rail_urban rail rail_electric rail_fast ship" speed="8.33" length="14.34" shape="4956.16,3686.62 4950.62,3699.86"/>
    </edge>
    <edge id=":131034503_1" function="internal">
        <lane id=":131034503_1_0" index="0" disallow="tram rail_urban rail rail_electric rail_fast ship" speed="7.94" length="14.32" shape="4956.16,3686.62 4955.19,3690.45 4955.70,3693.62 4957.69,3696.15 4961.15,3698.04"/>
    </edge>
    <edge id=":131034503_2" function="internal">
        <lane id=":131034503_2_0" index="0" disallow="tram rail_urban rail rail_electric rail_fast ship" speed="6.44" length="9.03" shape="4962.26,3695.04 4960.08,3693.85 4958.83,3692.26 4958.51,3690.25 4959.12,3687.84"/>
    </edge>
    <edge id=":131034503_3" function="internal">
        <lane id=":131034503_3_0" index="0" disallow="tram rail_urban rail rail_electric rail_fast ship" speed="8.14" length="14.22" shape="4962.26,3695.04 4958.43,3694.19 4955.22,3694.70 4952.61,3696.59 4950.62,3699.86"/>
    </edge>
    <edge id=":131034503_4" function="internal">
        <lane id=":131034503_4_0" index="0" disallow="tram rail_urban rail rail_electric rail_fast ship" speed="6.68" length="9.23" shape="4953.57,3701.11 4954.85,3699.01 4956.55,3697.80 4958.64,3697.48 4961.15,3698.04"/>
    </edge>
    <edge id=":131034503_5" function="internal">
        <lane id=":131034503_5_0" index="0" disallow="tram rail_urban rail rail_electric rail_fast ship" speed="8.33" length="14.38" shape="4953.57,3701.11 4959.12,3687.84"/>
    </edge>
    <edge id=":131034880_0" function="internal">
        <lane id=":131034880_0_0" index="0" disallow="tram rail_urban rail rail_electric rail_fast ship" speed="6.32" length="9.04" shape="4939.07,3727.00 4937.76,3729.15 4936.11,3730.29 4934.10,3730.43 4931.75,3729.57"/>
    </edge>
    <edge id=":131034880_1" function="internal">
        <lane id=":131034880_1_0" index="0" disallow="tram rail_urban rail rail_electric rail_fast ship" speed="7.98" length="14.48" shape="4939.07,3727.00 4938.02,3730.89 4938.47,3734.13 4940.41,3736.71 4943.85,3738.65"/>
    </edge>
    <edge id=":131034880_2" function="internal">
        <lane id=":131034880_2_0" index="0" disallow="tram rail_urban rail rail_electric rail_fast ship" speed="6.48" length="9.18" shape="4945.00,3735.66 4942.84,3734.44 4941.61,3732.79 4941.34,3730.73 4942.01,3728.25"/>
    </edge>
    <edge id=":131034880_3" function="internal">
        <lane id=":131034880_3_0" index="0" disallow="tram rail_urban rail rail_electric rail_fast ship" speed="8.33" length="14.60" shape="4945.00,3735.66 4941.58,3734.29 4938.28,3732.83 4935.02,3731.27 4931.75,3729.57"/>
    </edge>
    <edge id=":131034880_4" function="internal">
        <lane id=":131034880_4_0" index="0" disallow="tram rail_urban rail rail_electric rail_fast ship" speed="8.33" length="15.00" shape="4930.23,3732.39 4933.56,3734.11 4936.95,3735.73 4940.38,3737.25 4943.85,3738.65"/>
    </edge>
    <edge id=":131034880_5" function="internal">
        <lane id=":131034880_5_0" index="0" disallow="tram rail_urban rail rail_electric rail_fast ship" speed="7.85" length="14.55" shape="4930.23,3732.39 4934.03,3733.77 4937.25,3733.55 4939.92,3731.71 4942.01,3728.25"/>
    </edge>
    <edge id=":131035480_0" function="internal">
        <lane id=":131035480_0_0" index="0" disallow="tram rail_urban rail rail_electric rail_fast ship" speed="3.65" length="4.67" shape="4898.86,3765.77 4899.27,3767.15 4899.92,3767.77 4900.81,3767.62 4901.92,3766.71"/>
    </edge>
    <edge id=":131036772_0" function="internal">
        <lane id=":131036772_0_0" index="0" disallow="tram rail_urban rail rail_electric rail_fast ship" speed="3.65" length="4.67" shape="5135.06,3801.60 5134.84,3800.17 5134.29,3799.47 5133.39,3799.49 5132.16,3800.24"/>
    </edge>
    <edge id=":131037035_0" function="internal">
        <lane id=":131037035_0_0" index="0" disallow="tram rail_urban rail rail_electric rail_fast ship" speed="8.33" length="13.58" shape="5125.89,3813.64 5124.34,3816.81 5122.77,3819.67 5121.07,3822.45 5119.11,3825.38"/>
    </edge>
    <edge id=":131037035_1" function="internal">
        <lane id=":131037035_1_0" index="0" disallow="tram rail_urban rail rail_electric rail_fast ship" speed="8.33" length="13.96" shape="5125.89,3813.64 5124.84,3817.14 5125.09,3820.32 5126.65,3823.20 5129.52,3825.76"/>
    </edge>
    <edge id=":131037035_2" function="internal">
        <lane id=":131037035_2_0" index="0" disallow="tram rail_urban rail rail_electric rail_fast ship" speed="7.03" length="9.39" shape="5131.32,3823.12 5129.37,3821.38 5128.29,3819.45 5128.10,3817.32 5128.79,3815.00"/>
    </edge>
    <edge id=":131037035_3" function="internal">
        <lane id=":131037035_3_0" index="0" disallow="tram rail_urban rail rail_electric rail_fast ship" speed="8.00" length="14.15" shape="5131.32,3823.12 5127.85,3821.40 5124.65,3821.21 5121.74,3822.54 5119.11,3825.38"/>
    </edge>
    <edge id=":131037035_4" function="internal">
        <lane id=":131037035_4_0" index="0" disallow="tram rail_urban rail rail_electric rail_fast ship" speed="6.51" length="9.00" shape="5121.75,3827.20 5123.42,3825.39 5125.27,3824.54 5127.30,3824.67 5129.52,3825.76"/>
    </edge>
    <edge id=":131037035_5" function="internal">
        <lane id=":131037035_5_0" index="0" disallow="tram rail_urban rail rail_electric rail_fast ship" speed="8.33" length="14.11" shape="5121.75,3827.20 5123.75,3824.19 5125.54,3821.25 5127.20,3818.24 5128.79,3815.00"/>
    </edge>
    <edge id=":131037570_0" function="internal">
        <lane id=":131037570_0_0" index="0" disallow="tram rail_urban rail rail_electric rail_fast ship" speed="8.33" length="14.42" shape="5031.72,3493.17 5026.24,3506.51"/>
    </edge>
    <edge id=":131037570_1" function="internal">
        <lane id=":131037570_1_0" index="0" disallow="tram rail_urban rail rail_electric rail_fast ship" speed="8.33" length="3.91" shape="5031.72,3493.17 5030.83,3496.82 5030.85,3496.98"/>
    </edge>
    <edge id=":131037570_6" function="internal">
        <lane id=":131037570_6_0" index="0" disallow="tram rail_urban rail rail_electric rail_fast ship" speed="8.33" length="10.43" shape="5030.85,3496.98 5031.33,3500.02 5033.21,3502.78 5036.48,3505.10"/>
    </edge>
    <edge id=":131037570_2" function="internal">
        <lane id=":131037570_2_0" index="0" disallow="tram rail_urban rail rail_electric rail_fast ship" speed="6.90" length="9.54" shape="5037.98,3502.27 5035.76,3500.71 5034.47,3498.88 5034.11,3496.77 5034.68,3494.39"/>
    </edge>
    <edge id=":131037570_3" function="internal">
        <lane id=":131037570_3_0" index="0" disallow="tram rail_urban rail rail_electric rail_fast ship" speed="7.84" length="14.57" shape="5037.98,3502.27 5034.17,3500.91 5030.94,3501.16 5028.30,3503.03 5026.24,3506.51"/>
    </edge>
    <edge id=":131037570_4" function="internal">
        <lane id=":131037570_4_0" index="0" disallow="tram rail_urban rail rail_electric rail_fast ship" speed="6.31" length="9.04" shape="5029.20,3507.73 5030.47,3505.57 5032.11,3504.41 5034.12,3504.25 5036.48,3505.10"/>
    </edge>
    <edge id=":131037570_5" function="internal">
        <lane id=":131037570_5_0" index="0" disallow="tram rail_urban rail rail_electric rail_fast ship" speed="8.33" length="14.43" shape="5029.20,3507.73 5034.68,3494.39"/>
    </edge>
    <edge id=":131037599_0" function="internal">
        <lane id=":131037599_0_0" index="0" disallow="tram rail_urban rail rail_electric rail_fast ship" speed="13.89" length="11.26" shape="5028.76,3263.82 5024.11,3274.07"/>
        <lane id=":131037599_0_1" index="1" disallow="tram rail_urban rail rail_electric rail_fast ship" speed="13.89" length="11.26" shape="5031.68,3265.14 5027.02,3275.40"/>
    </edge>
    <edge id=":131037599_2" function="internal">
        <lane id=":131037599_2_0" index="0" disallow="tram rail_urban rail rail_electric rail_fast ship" speed="7.75" length="2.49" shape="5031.68,3265.14 5031.21,3267.58"/>
    </edge>
    <edge id=":131037599_5" function="internal">
        <lane id=":131037599_5_0" index="0" disallow="tram rail_urban rail rail_electric rail_fast ship" speed="7.75" length="9.73" shape="5031.21,3267.58 5032.00,3269.98 5034.07,3272.34 5037.42,3274.65"/>
    </edge>
    <edge id=":131037599_3" function="internal">
        <lane id=":131037599_3_0" index="0" disallow="tram rail_urban rail rail_electric rail_fast ship" speed="6.32" length="9.06" shape="5029.93,3276.73 5031.26,3274.70 5032.96,3273.68 5035.01,3273.66 5037.42,3274.65"/>
    </edge>
    <edge id=":131037599_4" function="internal">
        <lane id=":131037599_4_0" index="0" disallow="tram rail_urban rail rail_electric rail_fast ship" speed="13.89" length="11.29" shape="5029.93,3276.73 5034.60,3266.45"/>
    </edge>
    <edge id=":131037689_0" function="internal">
        <lane id=":131037689_0_0" index="0" disallow="tram rail_urban rail rail_electric rail_fast ship" speed="6.35" length="9.04" shape="5062.73,3532.45 5061.60,3534.68 5060.04,3535.96 5058.05,3536.28 5055.63,3535.65"/>
    </edge>
    <edge id=":131037689_1" function="internal">
        <lane id=":131037689_1_0" index="0" disallow="tram rail_urban rail rail_electric rail_fast ship" speed="8.26" length="14.31" shape="5062.73,3532.45 5061.97,3536.36 5062.54,3539.62 5064.44,3542.24 5067.66,3544.21"/>
    </edge>
    <edge id=":131037689_2" function="internal">
        <lane id=":131037689_2_0" index="0" disallow="tram rail_urban rail rail_electric rail_fast ship" speed="6.81" length="9.42" shape="5068.91,3541.26 5066.82,3539.97 5065.60,3538.25 5065.25,3536.08 5065.76,3533.47"/>
    </edge>
    <edge id=":131037689_3" function="internal">
        <lane id=":131037689_3_0" index="0" disallow="tram rail_urban rail rail_electric rail_fast ship" speed="8.33" length="14.42" shape="5068.91,3541.26 5055.63,3535.65"/>
    </edge>
    <edge id=":131037689_4" function="internal">
        <lane id=":131037689_4_0" index="0" disallow="tram rail_urban rail rail_electric rail_fast ship" speed="8.33" length="14.42" shape="5054.39,3538.59 5067.66,3544.21"/>
    </edge>
    <edge id=":131037689_5" function="internal">
        <lane id=":131037689_5_0" index="0" disallow="tram rail_urban rail rail_electric rail_fast ship" speed="7.87" length="14.49" shape="5054.39,3538.59 5058.27,3539.61 5061.46,3539.10 5063.95,3537.05 5065.76,3533.47"/>
    </edge>
    <edge id=":131037709_0" function="internal">
        <lane id=":131037709_0_0" index="0" disallow="tram rail_urban rail rail_electric rail_fast ship" speed="3.90" length="2.58" shape="5065.96,3566.18 5065.59,3566.79 5065.12,3567.13 5064.54,3567.21 5063.86,3567.03"/>
    </edge>
    <edge id=":131037709_1" function="internal">
        <lane id=":131037709_1_0" index="0" disallow="tram rail_urban rail rail_electric rail_fast ship" speed="6.08" length="7.73" shape="5062.61,3569.98 5064.66,3570.52 5066.39,3570.28 5067.81,3569.25 5068.90,3567.43"/>
    </edge>