<?xml version="1.0" encoding="UTF-8"?>

<!-- generated on 2026-07-11T15:54:29.053736+00:00 by Eclipse SUMO netconvert 1.27.0
<netconvertConfiguration xmlns:xsi="http://www.w3.org/2001/XMLSchema-instance" xsi:noNamespaceSchemaLocation="http://sumo.dlr.de/xsd/netconvertConfiguration.xsd">

    <input>
        <sumo-net-file value="ITSC2020_CAV_impact/Urban/Simulations/Base/DCC.net.xml"/>
    </input>

    <output>
        <output-file value="dublin_sub.net.xml"/>
        <output.street-names value="true"/>
    </output>

    <processing>
        <geometry.min-radius.fix.railways value="false"/>
        <geometry.avoid-overlap value="false"/>
        <geometry.max-grade.fix value="false"/>
        <offset.disable-normalization value="true"/>
        <lefthand value="1"/>
    </processing>

    <edge_removal>
        <keep-edges.in-geo-boundary value="-6.261707,53.352671,-6.257140,53.347983"/>
    </edge_removal>

    <junctions>
        <no-turnarounds value="true"/>
    </junctions>

</netconvertConfiguration>
-->

<net version="1.20" junctionCornerDetail="5" lefthand="true" limitTurnSpeed="5.50" avoidOverlap="0" xmlns:xsi="http://www.w3.org/2001/XMLSchema-instance" xsi:noNamespaceSchemaLocation="http://sumo.dlr.de/xsd/net_file.xsd">

    <location netOffset="-677749.85,-5911444.78" convBoundary="4382.16,2987.59,4991.03,3644.50" origBoundary="-6.368224,53.318846,-6.186539,53.396212" projParameter="+proj=utm +zone=29 +ellps=WGS84 +datum=WGS84 +units=m +no_defs"/>

    <type id="highway.residential" priority="3" numLanes="1" speed="13.89" disallow="tram rail_urban rail rail_electric ship" oneway="0"/>
    <type id="highway.secondary" priority="11" numLanes="2" speed="27.78" disallow="tram rail_urban rail rail_electric ship" oneway="0"/>
    <type id="highway.tertiary" priority="10" numLanes="1" speed="22.22" disallow="tram rail_urban rail rail_electric ship" oneway="0"/>
    <type id="highway.unclassified" priority="4" numLanes="1" speed="13.89" disallow="tram rail_urban rail rail_electric ship" oneway="0"/>

    <edge id=":1294005409_0" function="internal">
        <lane id=":1294005409_0_0" index="0" disallow="tram rail_urban rail rail_electric rail_fast ship" speed="8.33" length="0.10" shape="4722.27,3342.65 4722.27,3342.65"/>
    </edge>
    <edge id=":1294005414_0" function="internal">
        <lane id=":1294005414_0_0" index="0" disallow="tram rail_urban rail rail_electric rail_fast ship" speed="7.33" length="11.00" shape="4675.20,3528.62 4672.24,3527.08 4670.36,3525.19 4669.56,3522.95 4669.84,3520.35"/>
    </edge>
    <edge id=":1294005414_1" function="internal">
        <lane id=":1294005414_1_0" index="0" disallow="tram rail_urban rail rail_electric rail_fast ship" speed="8.33" length="14.30" shape="4675.20,3528.62 4661.93,3523.29"/>
    </edge>
    <edge id=":1294005414_2" function="internal">
        <lane id=":1294005414_2_0" index="0" disallow="tram rail_urban rail rail_electric rail_fast ship" speed="7.91" length="3.97" shape="4675.20,3528.62 4671.33,3527.72"/>
    </edge>
    <edge id=":1294005414_9" function="internal">
        <lane id=":1294005414_9_0" index="0" disallow="tram rail_urban rail rail_electric rail_fast ship" speed="7.91" length="10.42" shape="4671.33,3527.72 4668.16,3528.31 4665.69,3530.38 4663.93,3533.95"/>
    </edge>
    <edge id=":1294005414_3" function="internal">
        <lane id=":1294005414_3_0" index="0" disallow="tram rail_urban rail rail_electric rail_fast ship" speed="6.39" length="9.04" shape="4666.97,3534.95 4668.08,3532.71 4669.62,3531.41 4671.61,3531.04 4674.04,3531.61"/>
    </edge>
    <edge id=":1294005414_4" function="internal">
        <lane id=":1294005414_4_0" index="0" disallow="tram rail_urban rail rail_electric rail_fast ship" speed="8.33" length="14.89" shape="4666.97,3534.95 4667.88,3531.34 4668.46,3527.67 4669.01,3523.99 4669.84,3520.35"/>
    </edge>
    <edge id=":1294005414_5" function="internal">
        <lane id=":1294005414_5_0" index="0" disallow="tram rail_urban rail rail_electric rail_fast ship" speed="8.24" length="14.25" shape="4666.97,3534.95 4667.69,3531.06 4667.09,3527.82 4665.17,3525.23 4661.93,3523.29"/>
    </edge>
    <edge id=":1294005414_6" function="internal">
        <lane id=":1294005414_6_0" index="0" disallow="tram rail_urban rail rail_electric rail_fast ship" speed="6.80" length="9.36" shape="4660.70,3526.25 4662.80,3527.52 4664.04,3529.22 4664.42,3531.37 4663.93,3533.95"/>
    </edge>
    <edge id=":1294005414_7" function="internal">
        <lane id=":1294005414_7_0" index="0" disallow="tram rail_urban rail rail_electric rail_fast ship" speed="8.33" length="14.38" shape="4660.70,3526.25 4674.04,3531.61"/>
    </edge>
    <edge id=":1294005414_8" function="internal">
        <lane id=":1294005414_8_0" index="0" disallow="tram rail_urban rail rail_electric rail_fast ship" speed="7.32" length="3.25" shape="4660.70,3526.25 4663.75,3526.90 4663.87,3526.87"/>
    </edge>
    <edge id=":1294005414_10" function="internal">
        <lane id=":1294005414_10_0" index="0" disallow="tram rail_urban rail rail_electric rail_fast ship" speed="7.32" length="9.41" shape="4663.87,3526.87 4666.28,3526.14 4668.31,3523.96 4669.84,3520.35"/>
    </edge>
    <edge id=":133459033_0" function="internal">
        <lane id=":133459033_0_0" index="0" disallow="tram rail_urban rail rail_electric rail_fast ship" speed="6.54" length="8.99" shape="4758.80,3239.45 4756.56,3238.40 4755.19,3236.89 4754.67,3234.93 4755.00,3232.50"/>
    </edge>
    <edge id=":133459033_1" function="internal">
        <lane id=":133459033_1_0" index="0" disallow="tram rail_urban rail rail_electric rail_fast ship" speed="6.48" length="9.00" shape="4750.95,3246.25 4751.99,3244.00 4753.50,3242.63 4755.46,3242.14 4757.89,3242.52"/>
    </edge>
    <edge id=":133459033_2" function="internal">
        <lane id=":133459033_2_0" index="0" disallow="tram rail_urban rail rail_electric rail_fast ship" speed="8.33" length="14.33" shape="4750.95,3246.25 4755.00,3232.50"/>
    </edge>
    <edge id=":133459096_0" function="internal">
        <lane id=":133459096_0_0" index="0" disallow="tram rail_urban rail rail_electric rail_fast ship" speed="3.65" length="4.67" shape="4801.95,3256.16 4803.33,3255.75 4803.95,3255.10 4803.80,3254.22 4802.89,3253.10"/>
    </edge>
    <edge id=":133459132_0" function="internal">
        <lane id=":133459132_0_0" index="0" disallow="tram rail_urban rail rail_electric rail_fast ship" speed="8.33" length="11.20" shape="4770.68,3178.67 4773.93,3167.96"/>
    </edge>
    <edge id=":133459132_1" function="internal">
        <lane id=":133459132_1_0" index="0" disallow="tram rail_urban rail rail_electric rail_fast ship" speed="6.48" length="9.03" shape="4770.68,3178.67 4771.06,3176.22 4770.56,3174.25 4769.18,3172.75 4766.92,3171.73"/>
    </edge>
    <edge id=":133459139_0" function="internal">
        <lane id=":133459139_0_0" index="0" disallow="tram rail_urban rail rail_electric rail_fast ship" speed="6.47" length="9.03" shape="4652.37,3138.43 4650.12,3137.40 4648.75,3135.89 4648.27,3133.91 4648.68,3131.47"/>
    </edge>
    <edge id=":133459139_1" function="internal">
        <lane id=":133459139_1_0" index="0" disallow="tram rail_urban rail rail_electric rail_fast ship" speed="8.33" length="11.26" shape="4645.38,3142.20 4648.68,3131.47"/>
        <lane id=":133459139_1_1" index="1" disallow="tram rail_urban rail rail_electric rail_fast ship" speed="8.33" length="11.26" shape="4642.31,3141.29 4645.63,3130.50"/>
    </edge>
    <edge id=":1396449287_0" function="internal">
        <lane id=":1396449287_0_0" index="0" disallow="tram rail_urban rail rail_electric rail_fast ship" speed="6.61" length="9.15" shape="4620.87,3152.16 4619.79,3154.37 4618.23,3155.73 4616.20,3156.22 4613.70,3155.86"/>
    </edge>
    <edge id=":1396449287_1" function="internal">
        <lane id=":1396449287_1_0" index="0" disallow="tram rail_urban rail rail_electric rail_fast ship" speed="8.33" length="14.36" shape="4620.87,3152.16 4616.56,3165.88"/>
        <lane id=":1396449287_1_1" index="1" disallow="tram rail_urban rail rail_electric rail_fast ship" speed="8.33" length="14.36" shape="4623.92,3153.14 4619.62,3166.81"/>
    </edge>
    <edge id=":1396449287_3" function="internal">
        <lane id=":1396449287_3_0" index="0" disallow="tram rail_urban rail rail_electric rail_fast ship" speed="6.47" length="9.03" shape="4612.81,3158.94 4615.07,3159.95 4616.45,3161.45 4616.95,3163.42 4616.56,3165.88"/>
    </edge>
    <edge id=":1396454306_0" function="internal">
        <lane id=":1396454306_0_0" index="0" disallow="tram rail_urban rail rail_electric rail_fast ship" speed="6.50" length="9.04" shape="4784.27,3133.79 4785.32,3131.54 4786.83,3130.17 4788.81,3129.68 4791.26,3130.06"/>
    </edge>
    <edge id=":1396454306_1" function="internal">
        <lane id=":1396454306_1_0" index="0" disallow="tram rail_urban rail rail_electric rail_fast ship" speed="8.33" length="11.28" shape="4784.27,3133.79 4787.25,3122.91"/>
    </edge>
    <edge id=":1396454306_2" function="internal">
        <lane id=":1396454306_2_0" index="0" disallow="tram rail_urban rail rail_electric rail_fast ship" speed="8.33" length="11.27" shape="4780.46,3126.82 4791.26,3130.06"/>
    </edge>
    <edge id=":1396454306_3" function="internal">
        <lane id=":1396454306_3_0" index="0" disallow="tram rail_urban rail rail_electric rail_fast ship" speed="6.41" length="9.03" shape="4780.46,3126.82 4782.93,3127.18 4784.88,3126.65 4786.32,3125.22 4787.25,3122.91"/>
    </edge>
    <edge id=":1396502126_0" function="internal">
        <lane id=":1396502126_0_0" index="0" disallow="tram rail_urban rail rail_electric rail_fast ship" speed="3.65" length="4.67" shape="4469.27,3115.66 4467.89,3116.08 4467.28,3116.73 4467.43,3117.61 4468.35,3118.72"/>
    </edge>
    <edge id=":1396865247_0" function="internal">
        <lane id=":1396865247_0_0" index="0" disallow="tram rail_urban rail rail_electric rail_fast ship" speed="6.66" length="8.80" shape="4745.70,3282.54 4743.57,3281.31 4742.26,3279.74 4741.77,3277.81 4742.11,3275.53"/>
    </edge>
    <edge id=":1396865247_1" function="internal">
        <lane id=":1396865247_1_0" index="0" disallow="tram rail_urban rail rail_electric rail_fast ship" speed="8.33" length="10.76" shape="4739.03,3285.83 4742.11,3275.53"/>
    </edge>
    <edge id=":1415538650_0" function="internal">
        <lane id=":1415538650_0_0" index="0" disallow="tram rail_urban rail rail_electric rail_fast ship" speed="3.65" length="4.67" shape="4612.17,3523.40 4610.73,3523.33 4609.93,3523.74 4609.78,3524.62 4610.27,3525.98"/>
    </edge>
    <edge id=":195867860_0" function="internal">
        <lane id=":195867860_0_0" index="0" disallow="tram rail_urban rail rail_electric rail_fast ship" speed="8.33" length="0.30" shape="4611.23,3068.24 4610.93,3068.18"/>
    </edge>
    <edge id=":2892088923_0" function="internal">
        <lane id=":2892088923_0_0" index="0" disallow="tram rail_urban rail rail_electric rail_fast ship" speed="6.59" length="8.71" shape="4645.78,3070.52 4644.78,3072.60 4643.32,3073.92 4641.38,3074.48 4638.97,3074.28"/>
    </edge>
    <edge id=":2892088923_1" function="internal">
        <lane id=":2892088923_1_0" index="0" disallow="tram rail_urban rail rail_electric rail_fast ship" speed="8.33" length="10.56" shape="4645.78,3070.52 4642.73,3080.63"/>
        <lane id=":2892088923_1_1" index="1" disallow="tram rail_urban rail rail_electric rail_fast ship" speed="8.33" length="10.56" shape="4648.83,3071.46 4645.79,3081.57"/>
    </edge>
    <edge id=":3451922921_0" function="internal">
        <lane id=":3451922921_0_0" index="0" disallow="tram rail_urban rail rail_electric rail_fast ship" speed="5.91" length="9.10" shape="4658.63,3550.41 4657.49,3552.78 4655.96,3553.94 4654.04,3553.90 4651.72,3552.65"/>
    </edge>
    <edge id=":3451922921_1" function="internal">
        <lane id=":3451922921_1_0" index="0" disallow="tram rail_urban rail rail_electric rail_fast ship" speed="8.33" length="14.75" shape="4658.63,3550.41 4654.25,3564.50"/>
    </edge>
    <edge id=":3451922921_2" function="internal">
        <lane id=":3451922921_2_0" index="0" disallow="tram rail_urban rail rail_electric rail_fast ship" speed="8.33" length="14.70" shape="4657.32,3565.42 4661.68,3551.38"/>
    </edge>
    <edge id=":3451922921_3" function="internal">
        <lane id=":3451922921_3_0" index="0" disallow="tram rail_urban rail rail_electric rail_fast ship" speed="8.33" length="14.93" shape="4657.32,3565.42 4657.77,3561.97 4656.98,3558.69 4654.97,3555.59 4651.72,3552.65"/>
    </edge>
    <edge id=":3451922921_4" function="internal">
        <lane id=":3451922921_4_0" index="0" disallow="tram rail_urban rail rail_electric rail_fast ship" speed="8.18" length="10.98" shape="4649.82,3555.23 4652.32,3557.44 4653.89,3559.72 4654.53,3562.08 4654.25,3564.50"/>
    </edge>
    <edge id=":3451922921_5" function="internal">
        <lane id=":3451922921_5_0" index="0" disallow="tram rail_urban rail rail_electric rail_fast ship" speed="7.54" length="15.63" shape="4649.82,3555.23 4653.80,3557.37 4657.10,3557.44 4659.72,3555.45 4661.68,3551.38"/>
    </edge>
    <edge id=":3451922932_0" function="internal">
        <lane id=":3451922932_0_0" index="0" disallow="tram rail_urban rail rail_electric rail_fast ship" speed="8.33" length="13.15" shape="4526.23,3547.50 4524.04,3544.81 4521.94,3542.49 4519.65,3540.40 4516.84,3538.40"/>
    </edge>
    <edge id=":3451922932_1" function="internal">
        <lane id=":3451922932_1_0" index="0" disallow="tram rail_urban rail rail_electric rail_fast ship" speed="8.33" length="11.24" shape="4521.52,3548.42 4524.76,3537.67"/>
        <lane id=":3451922932_1_1" index="1" disallow="tram rail_urban rail rail_electric rail_fast ship" speed="8.33" length="11.24" shape="4518.45,3547.51 4521.71,3536.73"/>
    </edge>
    <edge id=":3451922950_0" function="internal">
        <lane id=":3451922950_0_0" index="0" disallow="tram rail_urban rail rail_electric rail_fast ship" speed="8.33" length="0.73" shape="4510.97,3518.45 4510.94,3518.55 4510.91,3518.62 4510.88,3518.69 4510.83,3518.79"/>
        <lane id=":3451922950_0_1" index="1" disallow="tram rail_urban rail rail_electric rail_fast ship" speed="8.33" length="0.73" shape="4514.05,3519.31 4513.96,3519.62 4513.89,3519.83 4513.79,3520.03 4513.64,3520.31"/>
    </edge>
    <edge id=":5029099782_0" function="internal">
        <lane id=":5029099782_0_0" index="0" disallow="tram rail_urban rail rail_electric rail_fast ship" speed="6.30" length="9.04" shape="4805.19,3050.02 4806.13,3047.69 4807.58,3046.30 4809.54,3045.86 4812.00,3046.35"/>
    </edge>
    <edge id=":511114288_0" function="internal">
        <lane id=":511114288_0_0" index="0" disallow="tram rail_urban rail rail_electric rail_fast ship" speed="6.53" length="9.07" shape="4660.05,3095.36 4661.12,3093.14 4662.65,3091.79 4664.66,3091.32 4667.13,3091.71"/>
    </edge>
    <edge id=":511114288_1" function="internal">
        <lane id=":511114288_1_0" index="0" disallow="tram rail_urban rail rail_electric rail_fast ship" speed="8.33" length="11.30" shape="4660.05,3095.36 4663.59,3084.70"/>
        <lane id=":511114288_1_1" index="1" disallow="tram rail_urban rail rail_electric rail_fast ship" speed="8.33" length="11.30" shape="4657.00,3094.41 4660.58,3083.61"/>
    </edge>
    <edge id=":5300228178_0" function="internal">
        <lane id=":5300228178_0_0" index="0" disallow="tram rail_urban rail rail_electric rail_fast ship" speed="8.33" length="0.30" shape="4528.76,3524.65 4528.84,3524.36"/>
        <lane id=":5300228178_0_1" index="1" disallow="tram rail_urban rail rail_electric rail_fast ship" speed="8.33" length="0.30" shape="4525.70,3523.71 4525.78,3523.43"/>
    </edge>
    <edge id=":5300250107_0" function="internal">
        <lane id=":5300250107_0_0" index="0" disallow="tram rail_urban rail rail_electric rail_fast ship" speed="8.33" length="0.30" shape="4595.16,3235.65 4595.08,3235.94"/>
        <lane id=":5300250107_0_1" index="1" disallow="tram rail_urban rail rail_electric rail_fast ship" speed="8.33" length="0.30" shape="4598.22,3236.59 4598.14,3236.87"/>
    </edge>
    <edge id=":5300250108_0" function="internal">
        <lane id=":5300250108_0_0" index="0" disallow="tram rail_urban rail rail_electric rail_fast ship" speed="8.33" length="0.29" shape="4615.89,3241.40 4615.98,3241.10"/>
        <lane id=":5300250108_0_1" index="1" disallow="tram rail_urban rail rail_electric rail_fast ship" speed="8.33" length="0.29" shape="4612.84,3240.44 4612.92,3240.19"/>
    </edge>
    <edge id=":5300250111_0" function="internal">
        <lane id=":5300250111_0_0" index="0" disallow="tram rail_urban rail rail_electric rail_fast ship" speed="8.33" length="0.30" shape="4596.80,3303.00 4596.89,3302.71"/>
        <lane id=":5300250111_0_1" index="1" disallow="tram rail_urban rail rail_electric rail_fast ship" speed="8.33" length="0.30" shape="4593.74,3302.06 4593.82,3301.79"/>
    </edge>
    <edge id=":5301488751_0" function="internal">
        <lane id=":5301488751_0_0" index="0" disallow="tram rail_urban rail rail_electric rail_fast ship" speed="8.33" length="0.30" shape="4521.44,3480.75 4521.36,3481.04"/>
        <lane id=":5301488751_0_1" index="1" disallow="tram rail_urban rail rail_electric rail_fast ship" speed="8.33" length="0.30" shape="4524.52,3481.63 4524.44,3481.90"/>
    </edge>
    <edge id=":cluster_1294005413_532751179_0" function="internal">
        <lane id=":cluster_1294005413_532751179_0_0" index="0" disallow="tram rail_urban rail rail_electric rail_fast ship" speed="6.19" length="8.02" shape="4784.72,3569.59 4784.02,3570.06 4782.52,3570.01 4780.22,3569.43 4777.11,3568.33"/>
    </edge>
    <edge id=":cluster_1294005413_532751179_1" function="internal">
        <lane id=":cluster_1294005413_532751179_1_0" index="0" disallow="tram rail_urban rail rail_electric rail_fast ship" speed="7.67" length="12.87" shape="4775.95,3571.31 4780.42,3572.73 4783.87,3573.12 4786.30,3572.46 4787.69,3570.77"/>
    </edge>
    <edge id=":cluster_5300250112_5301488754_0" function="internal">
        <lane id=":cluster_5300250112_5301488754_0_0" index="0" disallow="tram rail_urban rail rail_electric rail_fast ship" speed="6.98" length="9.65" shape="4549.98,3476.03 4547.60,3474.63 4546.14,3472.88 4545.58,3470.80 4545.92,3468.38"/>
    </edge>
    <edge id=":cluster_5300250112_5301488754_1" function="internal">
        <lane id=":cluster_5300250112_5301488754_1_0" index="0" disallow="tram rail_urban rail rail_electric rail_fast ship" speed="7.50" length="13.43" shape="4540.17,3487.21 4541.91,3482.73 4543.91,3479.87 4546.18,3478.61 4548.70,3478.97"/>
    </edge>
    <edge id=":cluster_5300250112_5301488754_2" function="internal">
        <lane id=":cluster_5300250112_5301488754_2_0" index="0" disallow="tram rail_urban rail rail_electric rail_fast ship" speed="8.33" length="19.70" shape="4540.17,3487.21 4545.92,3468.38"/>
        <lane id=":cluster_5300250112_5301488754_2_1" index="1" disallow="tram rail_urban rail rail_electric rail_fast ship" speed="8.33" length="19.70" shape="4537.11,3486.27 4542.87,3467.43"/>
    </edge>

    <edge id="-114208220#0" from="3451922921" to="1294005414" name="Marlborough Street" priority="4" type="highway.unclassified" shape="4657.59,3558.97 4663.33,3540.89 4667.75,3527.44">
        <lane id="-114208220#0_0" index="0" disallow="tram rail_urban rail rail_electric rail_fast ship" speed="8.33" length="17.26" shape="4661.68,3551.38 4664.85,3541.38 4666.97,3534.95"/>
    </edge>
    <edge id="-114208220#2" from="cluster_20447295_453171574" to="3451922921" name="Marlborough Street" priority="4" type="highway.unclassified" shape="4629.31,3637.32 4633.80,3632.02 4636.25,3626.05 4638.28,3621.08 4640.56,3615.51 4657.59,3558.97">
        <lane id="-114208220#2_0" index="0" disallow="tram rail_urban rail rail_electric rail_fast ship" speed="8.33" length="78.24" shape="4630.53,3638.35 4635.18,3632.86 4637.73,3626.66 4639.76,3621.69 4642.07,3616.05 4657.32,3565.42"/>
    </edge>
    <edge id="-114208221#2" from="1415538650" to="3451922921" name="Findlater Place" priority="4" type="highway.unclassified" shape="4611.22,3524.69 4635.33,3542.55 4653.77,3556.15 4657.59,3558.97">
        <lane id="-114208221#2_0" index="0" disallow="tram rail_urban rail rail_electric rail_fast ship" speed="8.33" length="49.20" shape="4610.27,3525.98 4634.38,3543.84 4649.82,3555.23"/>
    </edge>
    <edge id="-114208222#2" from="cluster_1294005413_532751179" to="2420620083" name="Champions&amp;apos; Avenue" priority="3" type="highway.residential" shape="4784.98,3573.25 4796.79,3543.61 4809.45,3513.90 4833.59,3521.90 4835.79,3521.83">
        <lane id="-114208222#2_0" index="0" disallow="tram rail_urban rail rail_electric rail_fast ship" speed="8.33" length="86.11" shape="4787.69,3570.77 4798.27,3544.22 4810.34,3515.88 4833.36,3523.51 4835.84,3523.43"/>
    </edge>
    <edge id="-14047770#2" from="133459096" to="133459033" name="Marlborough Place" priority="4" type="highway.unclassified" shape="4802.42,3254.63 4796.53,3252.81 4756.25,3240.34 4753.02,3239.39">
        <lane id="-14047770#2_0" index="0" disallow="tram rail_urban rail rail_electric rail_fast ship" speed="8.33" length="46.16" shape="4802.89,3253.10 4797.00,3251.28 4758.80,3239.45"/>
    </edge>
    <edge id="-192108789#3" from="1294005414" to="cluster_1294005413_532751179" name="Cathal Brugha Street" priority="10" type="highway.tertiary" shape="4667.75,3527.44 4669.81,3528.24 4711.17,3544.36 4749.15,3559.16 4776.53,3569.82">
        <lane id="-192108789#3_0" index="0" disallow="tram rail_urban rail rail_electric rail_fast ship" speed="8.33" length="109.37" shape="4674.04,3531.61 4710.59,3545.85 4748.57,3560.65 4775.95,3571.31"/>
    </edge>
    <edge id="-3788308#3" from="1396449287" to="1396502126" name="Prince&amp;apos;s Street North" priority="4" type="highway.unclassified" shape="4620.22,3159.41 4608.48,3156.02 4557.07,3141.17 4492.29,3124.23 4468.81,3117.19">
        <lane id="-3788308#3_0" index="0" disallow="tram rail_urban rail rail_electric rail_fast ship" speed="8.33" length="149.93" shape="4613.70,3155.86 4608.92,3154.48 4557.49,3139.63 4492.72,3122.69 4469.27,3115.66"/>
    </edge>
    <edge id="-52879958" from="1294005414" to="cluster_5300250112_5301488754" name="Cathal Brugha Street" priority="10" type="highway.tertiary" shape="4667.75,3527.44 4605.50,3501.59 4572.86,3487.43 4551.73,3478.54 4542.37,3474.46">
        <lane id="-52879958_0" index="0" disallow="tram rail_urban rail rail_electric rail_fast ship" speed="8.33" length="121.52" shape="4661.93,3523.29 4606.13,3500.12 4573.49,3485.96 4552.36,3477.07 4549.98,3476.03"/>
    </edge>
    <edge id="114208220#0" from="1294005414" to="3451922921" name="Marlborough Street" priority="4" type="highway.unclassified" shape="4667.75,3527.44 4663.33,3540.89 4657.59,3558.97">
        <lane id="114208220#0_0" index="0" disallow="tram rail_urban rail rail_electric rail_fast ship" speed="8.33" length="17.30" shape="4663.93,3533.95 4661.81,3540.40 4658.63,3550.41"/>
    </edge>
    <edge id="114208220#1" from="3451922921" to="cluster_20447295_453171574" name="Marlborough Street" priority="4" type="highway.unclassified" shape="4657.59,3558.97 4640.56,3615.51 4638.28,3621.08 4636.25,3626.05 4633.80,3632.02 4629.31,3637.32">
        <lane id="114208220#1_0" index="0" disallow="tram rail_urban rail rail_electric rail_fast ship" speed="8.33" length="76.92" shape="4654.25,3564.50 4639.05,3614.97 4636.80,3620.47 4634.77,3625.44 4632.42,3631.18 4628.09,3636.29"/>
    </edge>
    <edge id="114208221#0" from="3451922921" to="1415538650" name="Findlater Place" priority="4" type="highway.unclassified" shape="4657.59,3558.97 4653.77,3556.15 4635.33,3542.55 4611.22,3524.69">
        <lane id="114208221#0_0" index="0" disallow="tram rail_urban rail rail_electric rail_fast ship" speed="8.33" length="49.19" shape="4651.72,3552.65 4636.28,3541.26 4612.17,3523.40"/>
    </edge>
    <edge id="114208222#1" from="2420620083" to="cluster_1294005413_532751179" name="Champions&amp;apos; Avenue" priority="3" type="highway.residential" shape="4835.79,3521.83 4833.59,3521.90 4809.45,3513.90 4796.79,3543.61 4784.98,3573.25">
        <lane id="114208222#1_0" index="0" disallow="tram rail_urban rail rail_electric rail_fast ship" speed="8.33" length="90.94" shape="4835.74,3520.23 4833.82,3520.29 4808.56,3511.92 4795.31,3543.00 4784.72,3569.59"/>
    </edge>
    <edge id="114208223#0" from="1294005414" to="1294005409" name="Marlborough Street" priority="4" type="highway.unclassified" spreadType="center" shape="4667.75,3527.44 4694.32,3437.36 4714.17,3370.09 4722.27,3342.65">
        <lane id="114208223#0_0" index="0" disallow="tram rail_urban rail rail_electric rail_fast ship" speed="8.33" length="185.28" shape="4669.84,3520.35 4694.32,3437.36 4714.17,3370.09 4722.27,3342.65"/>
    </edge>
    <edge id="114208223#2" from="1294005409" to="1396865247" name="Marlborough Street" priority="4" type="highway.unclassified" spreadType="center" shape="4722.27,3342.65 4732.00,3309.65 4740.58,3280.58">
        <lane id="114208223#2_0" index="0" disallow="tram rail_urban rail rail_electric rail_fast ship" speed="8.33" length="59.24" shape="4722.27,3342.65 4732.00,3309.65 4739.03,3285.83"/>
    </edge>
    <edge id="12341239#0" from="3451922932" to="3451922938" name="Parnell Street" priority="11" type="highway.secondary" spreadType="center" shape="4521.78,3541.95 4518.09,3539.19 4512.20,3535.45 4500.43,3532.02 4494.35,3529.05">
        <lane id="12341239#0_0" index="0" disallow="tram rail_urban rail rail_electric rail_fast ship" speed="8.33" length="13.14" shape="4516.84,3538.40 4512.20,3535.45 4504.86,3533.31"/>
    </edge>
    <edge id="125822009#0" from="511114288" to="1396454306" name="Abbey Street Lower" priority="4" type="highway.unclassified" spreadType="center" shape="4660.19,3089.57 4669.51,3092.45 4671.54,3092.95 4694.42,3100.43 4721.77,3109.55 4777.15,3125.85 4785.90,3128.42">
        <lane id="125822009#0_0" index="0" disallow="tram rail_urban rail rail_electric rail_fast ship" speed="8.33" length="118.66" shape="4667.13,3091.71 4669.51,3092.45 4671.54,3092.95 4694.42,3100.43 4721.77,3109.55 4777.15,3125.85 4780.46,3126.82"/>
    </edge>
    <edge id="125865744#0" from="659815" to="1396865247" name="Talbot Street" priority="4" type="highway.unclassified" spreadType="center" shape="4991.03,3357.96 4927.02,3336.28 4867.65,3319.62 4785.08,3295.20 4748.61,3283.74 4744.06,3281.86 4740.58,3280.58">
        <lane id="125865744#0_0" index="0" disallow="tram rail_urban rail rail_electric rail_fast ship" speed="8.33" length="256.73" shape="4991.03,3357.96 4927.02,3336.28 4867.65,3319.62 4785.08,3295.20 4748.61,3283.74 4745.70,3282.54"/>
    </edge>
    <edge id="14047769#0" from="133459132" to="133459139" name="Sackville Place" priority="4" type="highway.unclassified" spreadType="center" shape="4772.31,3173.30 4768.99,3172.33 4713.33,3156.23 4679.01,3146.37 4659.25,3140.50 4655.37,3139.32 4645.44,3136.38">
        <lane id="14047769#0_0" index="0" disallow="tram rail_urban rail rail_electric rail_fast ship" speed="8.33" length="119.29" shape="4766.92,3171.73 4713.33,3156.23 4679.01,3146.37 4659.25,3140.50 4655.37,3139.32 4652.37,3138.43"/>
    </edge>
    <edge id="14047770#0" from="133459033" to="133459096" name="Marlborough Place" priority="4" type="highway.unclassified" shape="4753.02,3239.39 4756.25,3240.34 4796.53,3252.81 4802.42,3254.63">
        <lane id="14047770#0_0" index="0" disallow="tram rail_urban rail rail_electric rail_fast ship" speed="8.33" length="46.12" shape="4757.89,3242.52 4796.06,3254.34 4801.95,3256.16"/>
    </edge>
    <edge id="14047774#0" from="1396454306" to="5029099782" name="Marlborough Street" priority="4" type="highway.unclassified" spreadType="center" shape="4785.90,3128.42 4786.51,3125.96 4787.36,3122.48 4788.26,3118.83 4788.75,3116.82 4789.75,3112.79 4797.72,3080.35 4806.95,3042.86">
        <lane id="14047774#0_0" index="0" disallow="tram rail_urban rail rail_electric rail_fast ship" speed="8.33" length="75.07" shape="4787.25,3122.91 4787.36,3122.48 4788.26,3118.83 4788.75,3116.82 4789.75,3112.79 4797.72,3080.35 4805.19,3050.02"/>
    </edge>
    <edge id="14047779#0" from="cluster_5300250112_5301488754" to="1294005414" name="Cathal Brugha Street" priority="10" type="highway.tertiary" shape="4542.37,3474.46 4551.73,3478.54 4572.86,3487.43 4605.50,3501.59 4667.75,3527.44">
        <lane id="14047779#0_0" index="0" disallow="tram rail_urban rail rail_electric rail_fast ship" speed="8.33" length="121.58" shape="4548.70,3478.97 4551.10,3480.01 4572.23,3488.90 4604.87,3503.06 4660.70,3526.25"/>
    </edge>
    <edge id="192108786#1" from="5301488751" to="3451922950" name="O&amp;apos;Connell Street Upper" priority="10" type="highway.tertiary" spreadType="center">
        <lane id="192108786#1_0" index="0" disallow="tram rail_urban rail rail_electric rail_fast ship" speed="8.33" length="38.82" shape="4521.36,3481.04 4510.97,3518.45"/>
        <lane id="192108786#1_1" index="1" disallow="tram rail_urban rail rail_electric rail_fast ship" speed="8.33" length="38.82" shape="4524.44,3481.90 4514.05,3519.31"/>
    </edge>
    <edge id="192108786#2" from="3451922950" to="3451922938" name="O&amp;apos;Connell Street Upper" priority="10" type="highway.tertiary" spreadType="center" shape="4512.41,3519.23 4510.16,3523.37 4506.54,3527.10 4500.85,3529.25 4494.35,3529.05">
        <lane id="192108786#2_0" index="0" disallow="tram rail_urban rail rail_electric rail_fast ship" speed="8.33" length="10.68" shape="4510.83,3518.79 4508.86,3522.41 4505.64,3525.73 4505.45,3525.80"/>
        <lane id="192108786#2_1" index="1" disallow="tram rail_urban rail rail_electric rail_fast ship" speed="8.33" length="10.68" shape="4513.64,3520.31 4511.46,3524.33 4507.44,3528.47 4505.51,3529.20"/>
    </edge>